*Heading
** Job name: cant_ring_06 Model name: Ring_plate
** Generated by: Abaqus/CAE 6.12-1
*Preprint, echo=NO, model=NO, history=NO, contact=NO
**
** PARTS
**
*Part, name=Part-1
*Node
      1,   9.99998474,           0., -0.0174532831
      2,    9.4285574,           0., -0.0164559539
      3,    8.8571291,           0., -0.0154586229
      4,   8.28570175,           0., -0.014461292
      5,   7.71427393,           0., -0.0134639619
      6,   7.14284611,           0., -0.0124666309
      7,   6.57141876,           0., -0.0114693008
      8,   5.99999094,           0., -0.0104719698
      9,    9.9707346,           0., -0.764497101
     10,   9.40097809,           0., -0.720811546
     11,   8.83122158,           0.,  -0.67712599
     12,   8.26146603,           0., -0.633440435
     13,   7.69170952,           0., -0.589754939
     14,   7.12195301,           0., -0.546069384
     15,   6.55219698,           0., -0.502383828
     16,   5.98244047,           0., -0.458698273
     17,   9.88575459,           0.,  -1.50726795
     18,   9.32085419,           0.,  -1.42113829
     19,   8.75595379,           0.,  -1.33500874
     20,   8.19105339,           0.,  -1.24887919
** ... 2515 like lines cut
*Element, type=STRI65
   1,    1,    2,   10,  681,  682,  683
   2,   10,    9,    1,  684,  685,  683
   3,    2,    3,   11,  686,  687,  688
   4,   11,   10,    2,  689,  682,  688
   5,    3,    4,   12,  690,  691,  692
   6,   12,   11,    3,  693,  687,  692
   7,    4,    5,   13,  694,  695,  696
   8,   13,   12,    4,  697,  691,  696
   9,    5,    6,   14,  698,  699,  700
  10,   14,   13,    5,  701,  695,  700
  11,    6,    7,   15,  702,  703,  704
  12,   15,   14,    6,  705,  699,  704
  13,    7,    8,   16,  706,  707,  708
  14,   16,   15,    7,  709,  703,  708
  15,    9,   10,   18,  684,  710,  711
  16,   18,   17,    9,  712,  713,  711
  17,   10,   11,   19,  689,  714,  715
  18,   19,   18,   10,  716,  710,  715
  19,   11,   12,   20,  693,  717,  718
  20,   20,   19,   11,  719,  714,  718
** ... 1156 like lines cut
*Nset, nset=Fixed_edge
  673,  674,  675,  676,  677,  678,  679,  680, 2516, 2520, 2523, 2526, 2529, 2532, 2535
*Elset, elset=Fixed_edge, generate
 1164,  1176,     2
*Nset, nset=moving_edge
   1,   2,   3,   4,   5,   6,   7,   8, 681, 686, 690, 694, 698, 702, 706
*Elset, elset=moving_edge, generate
  1,  13,   2
*Nset, nset=_PickedSet8, internal, generate
    1,  2535,     1
*Elset, elset=_PickedSet8, internal, generate
    1,  1176,     1
*Nset, nset=end_nodes
 1, 8
** Section: Section-1
*Shell Section, elset=_PickedSet8, material=Material-1
0.03, 5
*End Part
**  
**
** ASSEMBLY
**
*Assembly, name=Assembly
**  
*Instance, name=Part-1-1, part=Part-1
*End Instance
**  
*Nset, nset=_PickedSet4, internal, instance=Part-1-1
   1,   2,   3,   4,   5,   6,   7,   8, 681, 686, 690, 694, 698, 702, 706
*Elset, elset=_PickedSet4, internal, instance=Part-1-1, generate
  1,  13,   2
*End Assembly
** 
** MATERIALS
** 
*Material, name=Material-1
*Elastic
 2.1e+11,0.
** 
** BOUNDARY CONDITIONS
** 
** Name: BC-1 Type: Displacement/Rotation
*Boundary
_PickedSet4, 1, 1
_PickedSet4, 2, 2
_PickedSet4, 3, 3
_PickedSet4, 4, 4
_PickedSet4, 5, 5
_PickedSet4, 6, 6
