*Heading
** Job name: cant_ring_10 Model name: Ring_plate
** Generated by: Abaqus/CAE 6.12-1
*Preprint, echo=NO, model=NO, history=NO, contact=NO
**
** PARTS
**
*Part, name=Part-1
*Node
      1,   9.99998474,           0., -0.0174532831
      2,   8.99998665,           0., -0.0157079548
      3,    7.9999876,           0., -0.0139626274
      4,   6.99998951,           0., -0.0122172982
      5,   5.99999094,           0., -0.0104719698
      6,   9.91898918,           0.,  -1.27029979
      7,   8.92708969,           0.,   -1.1432699
      8,   7.93519115,           0.,  -1.01623988
      9,   6.94329214,           0., -0.889209867
     10,   5.95139313,           0., -0.762179911
     11,   9.68165112,           0.,  -2.50312424
     12,   8.71348572,           0.,  -2.25281167
     13,    7.7453208,           0.,  -2.00249934
     14,   6.77715588,           0.,  -1.75218689
     15,   5.80899048,           0.,  -1.50187445
     16,   9.29171276,           0.,  -3.69649458
     17,    8.3625412,           0.,  -3.32684517
     18,   7.43337011,           0.,  -2.95719576
     19,   6.50419903,           0.,  -2.58754611
     20,   5.57502794,           0.,   -2.2178967
** ... 889 like lines cut
*Element, type=STRI65
  1,   1,   2,   6, 256, 257, 258
  2,   2,   7,   6, 259, 260, 257
  3,   2,   3,   7, 261, 262, 259
  4,   3,   8,   7, 263, 264, 262
  5,   3,   4,   8, 265, 266, 263
  6,   4,   9,   8, 267, 268, 266
  7,   4,   5,   9, 269, 270, 267
  8,   5,  10,   9, 271, 272, 270
  9,   6,   7,  11, 260, 273, 274
 10,   7,  12,  11, 275, 276, 273
 11,   7,   8,  12, 264, 277, 275
 12,   8,  13,  12, 278, 279, 277
 13,   8,   9,  13, 268, 280, 278
 14,   9,  14,  13, 281, 282, 280
 15,   9,  10,  14, 272, 283, 281
 16,  10,  15,  14, 284, 285, 283
 17,  11,  12,  16, 276, 286, 287
 18,  12,  17,  16, 288, 289, 286
 19,  12,  13,  17, 279, 290, 288
 20,  13,  18,  17, 291, 292, 290
** ... 380 like lines cut
*Nset, nset=Fixed_edge
 251, 252, 253, 254, 255, 900, 903, 906, 909
*Elset, elset=Fixed_edge, generate
 394,  400,    2
*Nset, nset=moving_edge
   1,   2,   3,   4,   5, 256, 261, 265, 269
*Elset, elset=moving_edge, generate
 1,  7,  2
*Nset, nset=_PickedSet8, internal, generate
   1,  909,    1
*Elset, elset=_PickedSet8, internal, generate
   1,  400,    1
*Nset, nset=end_nodes
 1, 5
** Section: Section-1
*Shell Section, elset=_PickedSet8, material=Material-1
0.03, 5
*End Part
**  
**
** ASSEMBLY
**
*Assembly, name=Assembly
**  
*Instance, name=Part-1-1, part=Part-1
*End Instance
**  
*Nset, nset=_PickedSet4, internal, instance=Part-1-1
   1,   2,   3,   4,   5, 256, 261, 265, 269
*Elset, elset=_PickedSet4, internal, instance=Part-1-1, generate
 1,  7,  2
*End Assembly
** 
** MATERIALS
** 
*Material, name=Material-1
*Elastic
 2.1e+11,0.
** 
** BOUNDARY CONDITIONS
** 
** Name: BC-1 Type: Displacement/Rotation
*Boundary
_PickedSet4, 1, 1
_PickedSet4, 2, 2
_PickedSet4, 3, 3
_PickedSet4, 4, 4
_PickedSet4, 5, 5
_PickedSet4, 6, 6
