*Heading
** Job name: cant_ring_14 Model name: Ring_plate
** Generated by: Abaqus/CAE 6.12-1
*Preprint, echo=NO, model=NO, history=NO, contact=NO
**
** PARTS
**
*Part, name=Part-1
*Node
      1,   9.99998474,           0., -0.0174532831
      2,   8.66665363,           0., -0.015126179
      3,   7.33332205,           0., -0.0127990749
      4,   5.99999094,           0., -0.0104719698
      5,   9.84511662,           0.,  -1.75318992
      6,   8.53243446,           0.,  -1.51943135
      7,   7.21975231,           0.,  -1.28567266
      8,   5.90707016,           0.,  -1.05191398
      9,   9.39127541,           0.,  -3.43568635
     10,    8.1391058,           0.,  -2.97759485
     11,   6.88693571,           0.,  -2.51950336
     12,   5.63476563,           0.,  -2.06141186
     13,   8.65224361,           0.,  -5.01384878
     14,   7.49861097,           0.,  -4.34533596
     15,   6.34497881,           0.,  -3.67682266
     16,   5.19134617,           0.,  -3.00830936
     17,    7.6504631,           0.,  -6.43975258
     18,   6.63040113,           0.,  -5.58111906
     19,   5.61033964,           0.,  -4.72248554
     20,   4.59027767,           0.,  -3.86385179
** ... 491 like lines cut
*Element, type=STRI65
  1,   1,   2,   6, 149, 150, 151
  2,   6,   5,   1, 152, 153, 151
  3,   2,   3,   7, 154, 155, 156
  4,   7,   6,   2, 157, 150, 156
  5,   3,   4,   8, 158, 159, 160
  6,   8,   7,   3, 161, 155, 160
  7,   5,   6,  10, 152, 162, 163
  8,  10,   9,   5, 164, 165, 163
  9,   6,   7,  11, 157, 166, 167
 10,  11,  10,   6, 168, 162, 167
 11,   7,   8,  12, 161, 169, 170
 12,  12,  11,   7, 171, 166, 170
 13,   9,  10,  14, 164, 172, 173
 14,  14,  13,   9, 174, 175, 173
 15,  10,  11,  15, 168, 176, 177
 16,  15,  14,  10, 178, 172, 177
 17,  11,  12,  16, 171, 179, 180
 18,  16,  15,  11, 181, 176, 180
 19,  13,  14,  18, 174, 182, 183
 20,  18,  17,  13, 184, 185, 183
** ... 196 like lines cut
*Nset, nset=Fixed_edge
 145, 146, 147, 148, 504, 508, 511
*Elset, elset=Fixed_edge, generate
 212,  216,    2
*Nset, nset=moving_edge
   1,   2,   3,   4, 149, 154, 158
*Elset, elset=moving_edge, generate
 1,  5,  2
*Nset, nset=_PickedSet8, internal, generate
   1,  511,    1
*Elset, elset=_PickedSet8, internal, generate
   1,  216,    1
*Nset, nset=end_nodes
 1, 4
** Section: Section-1
*Shell Section, elset=_PickedSet8, material=Material-1
0.03, 5
*End Part
**  
**
** ASSEMBLY
**
*Assembly, name=Assembly
**  
*Instance, name=Part-1-1, part=Part-1
*End Instance
**  
*Nset, nset=_PickedSet4, internal, instance=Part-1-1
   1,   2,   3,   4, 149, 154, 158
*Elset, elset=_PickedSet4, internal, instance=Part-1-1, generate
 1,  5,  2
*End Assembly
** 
** MATERIALS
** 
*Material, name=Material-1
*Elastic
 2.1e+11,0.
** 
** BOUNDARY CONDITIONS
** 
** Name: BC-1 Type: Displacement/Rotation
*Boundary
_PickedSet4, 1, 1
_PickedSet4, 2, 2
_PickedSet4, 3, 3
_PickedSet4, 4, 4
_PickedSet4, 5, 5
_PickedSet4, 6, 6
