*Heading
** Job name: circ_plate_06 Model name: Circular plate
** Generated by: Abaqus/CAE 6.12-1
*Preprint, echo=NO, model=NO, history=NO, contact=NO
**
** PARTS
**
*Part, name=Part-1
*Node
      1,          -5.,           0.,           0.
      2,           0.,           0.,           0.
      3,           0.,           0.,           5.
      4,           5.,           0.,           0.
      5,           0.,           0.,          -5.
      6, -0.602683425,           0.,   4.96354437
      7,  -1.19657826,           0.,   4.85470915
      8,  -1.77302444,           0.,   4.67508125
      9,  -2.32361579,           0.,   4.42727995
     10,  -2.84032369,           0.,   4.11491919
     11,  -3.31561327,           0.,   3.74255371
     12,  -3.74255371,           0.,   3.31561327
     13,  -4.11491919,           0.,   2.84032369
     14,  -4.42727995,           0.,   2.32361579
     15,  -4.67508125,           0.,   1.77302444
     16,  -4.85470915,           0.,   1.19657826
     17,  -4.96354437,           0.,  0.602683425
     18,  -4.28571415,           0.,           0.
     19,  -3.57142854,           0.,           0.
     20,  -2.85714293,           0.,           0.
** ... 1017 like lines cut
*Element, type=STRI65
  1,  11,  12,  88, 274, 275, 276
  2,  88,  82,  11, 277, 278, 276
  3,  12,  13,  87, 279, 280, 281
  4,  87,  88,  12, 282, 275, 281
  5,  13,  14,  86, 283, 284, 285
  6,  86,  87,  13, 286, 280, 285
  7,  14,  15,  85, 287, 288, 289
  8,  85,  86,  14, 290, 284, 289
  9,  15,  16,  84, 291, 292, 293
 10,  84,  85,  15, 294, 288, 293
 11,  16,  17,  83, 295, 296, 297
 12,  83,  84,  16, 298, 292, 297
 13,  17,   1,  18, 299, 300, 301
 14,  18,  83,  17, 302, 296, 301
 15,  18,  19,  83, 303, 304, 302
 16,  19,  94,  83, 305, 306, 304
 17,  19,  20,  94, 307, 308, 305
 18,  20,  95,  94, 309, 310, 308
 19,  20,  21,  95, 311, 312, 309
 20,  21,  96,  95, 313, 314, 312
** ... 472 like lines cut
*Nset, nset=_PickedSet12, internal, generate
    1,  1037,     1
*Elset, elset=_PickedSet12, internal, generate
   1,  492,    1
*Nset, nset=edge_nodes
    1,    3,    4,    5,    6,    7,    8,    9,   10,   11,   12,   13,   14,   15,   16,   17
   31,   32,   33,   34,   35,   36,   37,   38,   39,   40,   41,   42,   58,   59,   60,   61
   62,   63,   64,   65,   66,   67,   68,   69,   70,   71,   72,   73,   74,   75,   76,   77
   78,   79,   80,   81,  274,  279,  283,  287,  291,  295,  299,  436,  439,  442,  445,  448
  452,  453,  458,  462,  466,  470,  474,  478,  633,  639,  645,  651,  657,  662,  797,  800
  803,  806,  809,  812,  815,  818,  821,  824,  827,  830,  833,  965,  971,  977,  983,  989
  995, 1001, 1004, 1008, 1012, 1016, 1020, 1024
** Section: Section-1
*Shell Section, elset=_PickedSet12, material=Material-1
0.01, 5
*End Part
**  
**
** ASSEMBLY
**
*Assembly, name=Assembly
**  
*Instance, name=Part-1-1, part=Part-1
*End Instance
**  
*Elset, elset=__PickedSurf4_SNEG, internal, instance=Part-1-1, generate
   1,  492,    1
*Surface, type=ELEMENT, name=_PickedSurf4, internal
__PickedSurf4_SNEG, SNEG
*End Assembly
** 
** MATERIALS
** 
*Material, name=Material-1
*Elastic
10920.,0.
** 
** BOUNDARY CONDITIONS
** 
** Name: BC-1 Type: Displacement/Rotation
*Boundary
Part-1-1.edge_nodes, 1, 1
Part-1-1.edge_nodes, 2, 2
Part-1-1.edge_nodes, 3, 3
Part-1-1.edge_nodes, 4, 4
Part-1-1.edge_nodes, 5, 5
Part-1-1.edge_nodes, 6, 6
** ----------------------------------------------------------------
** 
** STEP: Step-1
** 
*Step, name=Step-1
*Static
1., 1., 1e-05, 1.
** 
** LOADS
** 
** Name: Load-1   Type: Pressure
*Dsload
_PickedSurf4, P, 1.
** 
** OUTPUT REQUESTS
** 
*Restart, write, frequency=0
*Print, solve=NO
** 
** FIELD OUTPUT: F-Output-1
** 
*Output, field, variable=PRESELECT
** 
** HISTORY OUTPUT: H-Output-1
** 
*Output, history, variable=PRESELECT
*End Step
