*Heading
** Job name: circ_plate_08 Model name: Circular plate
** Generated by: Abaqus/CAE 6.12-1
*Preprint, echo=NO, model=NO, history=NO, contact=NO
**
** PARTS
**
*Part, name=Part-1
*Node
      1,          -5.,           0.,           0.
      2,           0.,           0.,           0.
      3,           0.,           0.,           5.
      4,           5.,           0.,           0.
      5,           0.,           0.,          -5.
      6, -0.782172322,           0.,   4.93844175
      7,  -1.54508495,           0.,    4.7552824
      8,  -2.26995254,           0.,   4.45503283
      9,  -2.93892622,           0.,   4.04508495
     10,  -3.53553391,           0.,   3.53553391
     11,  -4.04508495,           0.,   2.93892622
     12,  -4.45503283,           0.,   2.26995254
     13,   -4.7552824,           0.,   1.54508495
     14,  -4.93844175,           0.,  0.782172322
     15,  -4.16666651,           0.,           0.
     16,  -3.33333325,           0.,           0.
     17,         -2.5,           0.,           0.
     18,  -1.66666663,           0.,           0.
     19, -0.833333313,           0.,           0.
     20,           0.,           0.,  0.833333313
** ... 581 like lines cut
*Element, type=STRI65
 1,  10,  11,  62, 162, 163, 164
 2,  11,  66,  62, 165, 166, 163
 3,  11,  12,  65, 167, 168, 169
 4,  65,  66,  11, 170, 165, 169
 5,  12,  13,  64, 171, 172, 173
 6,  64,  65,  12, 174, 168, 173
 7,  13,  14,  63, 175, 176, 177
 8,  63,  64,  13, 178, 172, 177
 9,  14,   1,  15, 179, 180, 181
10,  15,  63,  14, 182, 176, 181
11,  15,  16,  63, 183, 184, 182
12,  16,  71,  63, 185, 186, 184
13,  16,  17,  71, 187, 188, 185
14,  17,  72,  71, 189, 190, 188
15,  17,  18,  72, 191, 192, 189
16,  18,  73,  72, 193, 194, 192
17,  18,  19,  73, 195, 196, 193
18,  19,  74,  73, 197, 198, 196
19,  19,   2,  74, 199, 200, 197
20,   2,  20,  74, 201, 202, 200
** ... 260 like lines cut
*Nset, nset=_PickedSet12, internal, generate
   1,  601,    1
*Elset, elset=_PickedSet12, internal, generate
   1,  280,    1
*Nset, nset=edge_nodes
   1,   3,   4,   5,   6,   7,   8,   9,  10,  11,  12,  13,  14,  25,  26,  27
  28,  29,  30,  31,  32,  33,  44,  45,  46,  47,  48,  49,  50,  51,  52,  53
  54,  55,  56,  57,  58,  59,  60,  61, 162, 167, 171, 175, 179, 264, 267, 270
 273, 277, 278, 283, 287, 291, 295, 374, 377, 380, 383, 387, 468, 471, 474, 477
 481, 483, 486, 489, 492, 495, 573, 576, 579, 582, 586, 588, 591, 594, 597, 600
** Section: Section-1
*Shell Section, elset=_PickedSet12, material=Material-1
0.01, 5
*End Part
**  
**
** ASSEMBLY
**
*Assembly, name=Assembly
**  
*Instance, name=Part-1-1, part=Part-1
*End Instance
**  
*Elset, elset=__PickedSurf4_SNEG, internal, instance=Part-1-1, generate
   1,  280,    1
*Surface, type=ELEMENT, name=_PickedSurf4, internal
__PickedSurf4_SNEG, SNEG
*End Assembly
** 
** MATERIALS
** 
*Material, name=Material-1
*Elastic
10920.,0.
** 
** BOUNDARY CONDITIONS
** 
** Name: BC-1 Type: Displacement/Rotation
*Boundary
Part-1-1.edge_nodes, 1, 1
Part-1-1.edge_nodes, 2, 2
Part-1-1.edge_nodes, 3, 3
Part-1-1.edge_nodes, 4, 4
Part-1-1.edge_nodes, 5, 5
Part-1-1.edge_nodes, 6, 6
** ----------------------------------------------------------------
** 
** STEP: Step-1
** 
*Step, name=Step-1
*Static
1., 1., 1e-05, 1.
** 
** LOADS
** 
** Name: Load-1   Type: Pressure
*Dsload
_PickedSurf4, P, 1.
** 
** OUTPUT REQUESTS
** 
*Restart, write, frequency=0
*Print, solve=NO
** 
** FIELD OUTPUT: F-Output-1
** 
*Output, field, variable=PRESELECT
** 
** HISTORY OUTPUT: H-Output-1
** 
*Output, history, variable=PRESELECT
*End Step
