*Heading
** Job name: circ_plate_04 Model name: Circular plate
** Generated by: Abaqus/CAE 6.12-1
*Preprint, echo=NO, model=NO, history=NO, contact=NO
**
** PARTS
**
*Part, name=Part-1
*Node
      1,          -5.,           0.,           0.
      2,           0.,           0.,           0.
      3,           0.,           0.,           5.
      4,           5.,           0.,           0.
      5,           0.,           0.,          -5.
      6,  -0.39229548,           0.,   4.98458672
      7, -0.782172322,           0.,   4.93844175
      8,  -1.16722679,           0.,   4.86184978
      9,  -1.54508495,           0.,    4.7552824
     10,  -1.91341722,           0.,   4.61939764
     11,  -2.26995254,           0.,   4.45503283
     12,   -2.6124928,           0.,   4.26320076
     13,  -2.93892622,           0.,   4.04508495
     14,   -3.2472403,           0.,   3.80202985
     15,  -3.53553391,           0.,   3.53553391
     16,  -3.80202985,           0.,    3.2472403
     17,  -4.04508495,           0.,   2.93892622
     18,  -4.26320076,           0.,    2.6124928
     19,  -4.45503283,           0.,   2.26995254
     20,  -4.61939764,           0.,   1.91341722
** ... 2621 like lines cut
*Element, type=STRI65
  1,   15,   16,  151,  682,  683,  684
  2,  151,  141,   15,  685,  686,  684
  3,   16,   17,  152,  687,  688,  689
  4,  152,  151,   16,  690,  683,  689
  5,   17,   18,  153,  691,  692,  693
  6,  153,  152,   17,  694,  688,  693
  7,   18,   19,  154,  695,  696,  697
  8,  154,  153,   18,  698,  692,  697
  9,   19,   20,  155,  699,  700,  701
 10,  155,  154,   19,  702,  696,  701
 11,   20,   21,  156,  703,  704,  705
 12,  156,  155,   20,  706,  700,  705
 13,   21,   22,  157,  707,  708,  709
 14,  157,  156,   21,  710,  704,  709
 15,   22,   23,  158,  711,  712,  713
 16,  158,  157,   22,  714,  708,  713
 17,   23,   24,  159,  715,  716,  717
 18,  159,  158,   23,  718,  712,  717
 19,   24,    1,   25,  719,  720,  721
 20,   25,  159,   24,  722,  716,  721
** ... 1260 like lines cut
*Nset, nset=_PickedSet12, internal, generate
    1,  2641,     1
*Elset, elset=_PickedSet12, internal, generate
    1,  1280,     1
*Nset, nset=edge_nodes
    1,    3,    4,    5,    6,    7,    8,    9,   10,   11,   12,   13,   14,   15,   16,   17
   18,   19,   20,   21,   22,   23,   24,   49,   50,   51,   52,   53,   54,   55,   56,   57
   58,   59,   60,   61,   62,   63,   64,   65,   66,   67,   92,   93,   94,   95,   96,   97
   98,   99,  100,  101,  102,  103,  104,  105,  106,  107,  108,  109,  110,  111,  112,  113
  114,  115,  116,  117,  118,  119,  120,  121,  122,  123,  124,  125,  126,  127,  128,  129
  682,  687,  691,  695,  699,  703,  707,  711,  715,  719, 1104, 1113, 1122, 1131, 1140, 1149
 1158, 1167, 1176, 1183, 1185, 1190, 1194, 1198, 1202, 1206, 1210, 1214, 1218, 1222, 1594, 1603
 1612, 1621, 1630, 1639, 1648, 1657, 1666, 1673, 1991, 2000, 2009, 2018, 2027, 2036, 2045, 2054
 2063, 2072, 2075, 2079, 2083, 2087, 2091, 2095, 2099, 2103, 2107, 2111, 2471, 2480, 2489, 2498
 2507, 2516, 2525, 2534, 2543, 2552, 2555, 2559, 2563, 2567, 2571, 2575, 2579, 2583, 2587, 2591
** Section: Section-1
*Shell Section, elset=_PickedSet12, material=Material-1
0.01, 5
*End Part
**  
**
** ASSEMBLY
**
*Assembly, name=Assembly
**  
*Instance, name=Part-1-1, part=Part-1
*End Instance
**  
*Elset, elset=__PickedSurf4_SNEG, internal, instance=Part-1-1, generate
    1,  1280,     1
*Surface, type=ELEMENT, name=_PickedSurf4, internal
__PickedSurf4_SNEG, SNEG
*End Assembly
** 
** MATERIALS
** 
*Material, name=Material-1
*Elastic
10920.,0.
** 
** BOUNDARY CONDITIONS
** 
** Name: BC-1 Type: Displacement/Rotation
*Boundary
Part-1-1.edge_nodes, 1, 1
Part-1-1.edge_nodes, 2, 2
Part-1-1.edge_nodes, 3, 3
Part-1-1.edge_nodes, 4, 4
Part-1-1.edge_nodes, 5, 5
Part-1-1.edge_nodes, 6, 6
** ----------------------------------------------------------------
** 
** STEP: Step-1
** 
*Step, name=Step-1
*Static
1., 1., 1e-05, 1.
** 
** LOADS
** 
** Name: Load-1   Type: Pressure
*Dsload
_PickedSurf4, P, 1.
** 
** OUTPUT REQUESTS
** 
*Restart, write, frequency=0
*Print, solve=NO
** 
** FIELD OUTPUT: F-Output-1
** 
*Output, field, variable=PRESELECT
** 
** HISTORY OUTPUT: H-Output-1
** 
*Output, history, variable=PRESELECT
*End Step
