*Heading
** Job name: half_cyl_150 Model name: Pinched cylinder
** Generated by: Abaqus/CAE 6.12-1
*Preprint, echo=NO, model=NO, history=NO, contact=NO
**
** PARTS
**
*Part, name=Part-1
*Node
      1,           0.,   101.599998,           0.
      2,           0.,   101.599998,   304.799988
      3,  -101.599998,           0.,   304.799988
      4,  -101.599998,           0.,           0.
      5,   101.599998,           0.,           0.
      6,   101.599998,           0.,   304.799988
      7,           0.,   101.599998,   13.8545456
      8,           0.,   101.599998,   27.7090912
      9,           0.,   101.599998,   41.5636368
     10,           0.,   101.599998,   55.4181824
     11,           0.,   101.599998,    69.272728
     12,           0.,   101.599998,   83.1272736
     13,           0.,   101.599998,   96.9818192
     14,           0.,   101.599998,   110.836365
     15,           0.,   101.599998,    124.69091
     16,           0.,   101.599998,   138.545456
     17,           0.,   101.599998,   152.399994
     18,           0.,   101.599998,   166.254547
     19,           0.,   101.599998,   180.109085
     20,           0.,   101.599998,   193.963638
** ... 2005 like lines cut
*Element, type=STRI65
  1,    1,    7,   68,  530,  531,  532
  2,    7,  110,   68,  533,  534,  531
  3,    7,    8,  110,  535,  536,  533
  4,    8,  111,  110,  537,  538,  536
  5,    8,    9,  111,  539,  540,  537
  6,    9,  112,  111,  541,  542,  540
  7,    9,   10,  112,  543,  544,  541
  8,   10,  113,  112,  545,  546,  544
  9,   10,   11,  113,  547,  548,  545
 10,   11,  114,  113,  549,  550,  548
 11,   11,   12,  114,  551,  552,  549
 12,   12,  115,  114,  553,  554,  552
 13,   12,   13,  115,  555,  556,  553
 14,   13,  116,  115,  557,  558,  556
 15,   13,   14,  116,  559,  560,  557
 16,   14,  117,  116,  561,  562,  560
 17,   14,   15,  117,  563,  564,  561
 18,   15,  118,  117,  565,  566,  564
 19,   15,   16,  118,  567,  568,  565
 20,   16,  119,  118,  569,  570,  568
** ... 948 like lines cut
*Nset, nset=Clamped
    1,    4,    5,   59,   60,   61,   62,   63,   64,   65,   66,   67,   68,   69,   70,   71
   72,   73,   74,   75,   76,   77,   78,  532,  620,  687,  754,  821,  888,  955, 1022, 1089
 1156, 1223, 1353, 1420, 1487, 1554, 1621, 1688, 1755, 1822, 1889, 1956, 2023
*Elset, elset=Clamped
   1,  45,  89, 133, 177, 221, 265, 309, 353, 397, 441, 527, 571, 615, 659, 703
 747, 791, 835, 879, 923, 967
*Nset, nset=Edges
    3,    4,    5,    6,   38,   39,   40,   41,   42,   43,   44,   45,   46,   47,   48,   49
   50,   51,   52,   53,   54,   55,   56,   57,   58,   79,   80,   81,   82,   83,   84,   85
   86,   87,   88,   89,   90,   91,   92,   93,   94,   95,   96,   97,   98,   99, 1225, 1228
 1231, 1234, 1237, 1240, 1243, 1246, 1249, 1252, 1255, 1258, 1261, 1264, 1267, 1270, 1273, 1276
 1279, 1282, 1285, 1288, 1961, 1965, 1968, 1971, 1974, 1977, 1980, 1983, 1986, 1989, 1992, 1995
 1998, 2001, 2004, 2007, 2010, 2013, 2016, 2019, 2022, 2025
*Elset, elset=Edges
 442, 444, 446, 448, 450, 452, 454, 456, 458, 460, 462, 464, 466, 468, 470, 472
 474, 476, 478, 480, 482, 484, 926, 928, 930, 932, 934, 936, 938, 940, 942, 944
 946, 948, 950, 952, 954, 956, 958, 960, 962, 964, 966, 968
*Nset, nset=P
 2,
*End Part
**  
**
** ASSEMBLY
**
*Assembly, name=Assembly
**  
*Instance, name=Part-1-1, part=Part-1
*End Instance
**  
*End Assembly
** 
** MATERIALS
** 
*Material, name=Material-1
*Elastic
30000.,0.
** ----------------------------------------------------------------
** 
** STEP: Step-1
** 
*Step, name=Step-1
*Static
1., 1., 1e-05, 1.
** 
** OUTPUT REQUESTS
** 
*Restart, write, frequency=0
*Print, solve=NO
** 
** FIELD OUTPUT: F-Output-1
** 
*Output, field, variable=PRESELECT
** 
** HISTORY OUTPUT: H-Output-1
** 
*Output, history, variable=PRESELECT
*End Step
