*Heading
** Job name: half_cyl_180 Model name: Pinched cylinder
** Generated by: Abaqus/CAE 6.12-1
*Preprint, echo=NO, model=NO, history=NO, contact=NO
**
** PARTS
**
*Part, name=Part-1
*Node
      1,           0.,   101.599998,           0.
      2,           0.,   101.599998,   304.799988
      3,  -101.599998,           0.,   304.799988
      4,  -101.599998,           0.,           0.
      5,   101.599998,           0.,           0.
      6,   101.599998,           0.,   304.799988
      7,           0.,   101.599998,   17.9294109
      8,           0.,   101.599998,   35.8588219
      9,           0.,   101.599998,   53.7882347
     10,           0.,   101.599998,   71.7176437
     11,           0.,   101.599998,   89.6470566
     12,           0.,   101.599998,   107.576469
     13,           0.,   101.599998,   125.505882
     14,           0.,   101.599998,   143.435287
     15,           0.,   101.599998,     161.3647
     16,           0.,   101.599998,   179.294113
     17,           0.,   101.599998,   197.223526
     18,           0.,   101.599998,   215.152939
     19,           0.,   101.599998,   233.082352
     20,           0.,   101.599998,   251.011765
** ... 1275 like lines cut
*Element, type=STRI65
  1,   1,   7,  54, 343, 344, 345
  2,   7,  87,  54, 346, 347, 344
  3,   7,   8,  87, 348, 349, 346
  4,   8,  88,  87, 350, 351, 349
  5,   8,   9,  88, 352, 353, 350
  6,   9,  89,  88, 354, 355, 353
  7,   9,  10,  89, 356, 357, 354
  8,  10,  90,  89, 358, 359, 357
  9,  10,  11,  90, 360, 361, 358
 10,  11,  91,  90, 362, 363, 361
 11,  11,  12,  91, 364, 365, 362
 12,  12,  92,  91, 366, 367, 365
 13,  12,  13,  92, 368, 369, 366
 14,  13,  93,  92, 370, 371, 369
 15,  13,  14,  93, 372, 373, 370
 16,  14,  94,  93, 374, 375, 373
 17,  14,  15,  94, 376, 377, 374
 18,  15,  95,  94, 378, 379, 377
 19,  15,  16,  95, 380, 381, 378
 20,  16,  96,  95, 382, 383, 381
** ... 592 like lines cut
*Nset, nset=Clamped
    1,    4,    5,   47,   48,   49,   50,   51,   52,   53,   54,   55,   56,   57,   58,   59
   60,   61,   62,  345,  413,  465,  517,  569,  621,  673,  725,  777,  877,  929,  981, 1033
 1085, 1137, 1189, 1241, 1293
*Elset, elset=Clamped
   1,  35,  69, 103, 137, 171, 205, 239, 273, 339, 373, 407, 441, 475, 509, 543
 577, 611
*Nset, nset=Edges
    3,    4,    5,    6,   31,   32,   33,   34,   35,   36,   37,   38,   39,   40,   41,   42
   43,   44,   45,   46,   63,   64,   65,   66,   67,   68,   69,   70,   71,   72,   73,   74
   75,   76,   77,   78,  779,  782,  785,  788,  791,  794,  797,  800,  803,  806,  809,  812
  815,  818,  821,  824,  827, 1246, 1250, 1253, 1256, 1259, 1262, 1265, 1268, 1271, 1274, 1277
 1280, 1283, 1286, 1289, 1292, 1295
*Elset, elset=Edges
 274, 276, 278, 280, 282, 284, 286, 288, 290, 292, 294, 296, 298, 300, 302, 304
 306, 580, 582, 584, 586, 588, 590, 592, 594, 596, 598, 600, 602, 604, 606, 608
 610, 612
*Nset, nset=P
 2,
*End Part
**  
**
** ASSEMBLY
**
*Assembly, name=Assembly
**  
*Instance, name=Part-1-1, part=Part-1
*End Instance
**  
*End Assembly
** 
** MATERIALS
** 
*Material, name=Material-1
*Elastic
30000.,0.
** ----------------------------------------------------------------
** 
** STEP: Step-1
** 
*Step, name=Step-1
*Static
1., 1., 1e-05, 1.
** 
** OUTPUT REQUESTS
** 
*Restart, write, frequency=0
*Print, solve=NO
** 
** FIELD OUTPUT: F-Output-1
** 
*Output, field, variable=PRESELECT
** 
** HISTORY OUTPUT: H-Output-1
** 
*Output, history, variable=PRESELECT
*End Step
