*Heading
** Job name: half_cyl_100 Model name: Pinched cylinder
** Generated by: Abaqus/CAE 6.12-1
*Preprint, echo=NO, model=NO, history=NO, contact=NO
**
** PARTS
**
*Part, name=Part-1
*Node
      1,           0.,   101.599998,           0.
      2,           0.,   101.599998,   304.799988
      3,  -101.599998,           0.,   304.799988
      4,  -101.599998,           0.,           0.
      5,   101.599998,           0.,           0.
      6,   101.599998,           0.,   304.799988
      7,           0.,   101.599998,   10.1599998
      8,           0.,   101.599998,   20.3199997
      9,           0.,   101.599998,   30.4799995
     10,           0.,   101.599998,   40.6399994
     11,           0.,   101.599998,   50.7999992
     12,           0.,   101.599998,   60.9599991
     13,           0.,   101.599998,   71.1200027
     14,           0.,   101.599998,   81.2799988
     15,           0.,   101.599998,   91.4400024
     16,           0.,   101.599998,   101.599998
     17,           0.,   101.599998,   111.760002
     18,           0.,   101.599998,   121.919998
     19,           0.,   101.599998,   132.080002
     20,           0.,   101.599998,   142.240005
** ... 3945 like lines cut
*Element, type=STRI65
  1,    1,    7,   94, 1024, 1025, 1026
  2,    7,  154,   94, 1027, 1028, 1025
  3,    7,    8,  154, 1029, 1030, 1027
  4,    8,  155,  154, 1031, 1032, 1030
  5,    8,    9,  155, 1033, 1034, 1031
  6,    9,  156,  155, 1035, 1036, 1034
  7,    9,   10,  156, 1037, 1038, 1035
  8,   10,  157,  156, 1039, 1040, 1038
  9,   10,   11,  157, 1041, 1042, 1039
 10,   11,  158,  157, 1043, 1044, 1042
 11,   11,   12,  158, 1045, 1046, 1043
 12,   12,  159,  158, 1047, 1048, 1046
 13,   12,   13,  159, 1049, 1050, 1047
 14,   13,  160,  159, 1051, 1052, 1050
 15,   13,   14,  160, 1053, 1054, 1051
 16,   14,  161,  160, 1055, 1056, 1054
 17,   14,   15,  161, 1057, 1058, 1055
 18,   15,  162,  161, 1059, 1060, 1058
 19,   15,   16,  162, 1061, 1062, 1059
 20,   16,  163,  162, 1063, 1064, 1062
** ... 1900 like lines cut
*Nset, nset=Clamped
    1,    4,    5,   80,   81,   82,   83,   84,   85,   86,   87,   88,   89,   90,   91,   92
   93,   94,   95,   96,   97,   98,   99,  100,  101,  102,  103,  104,  105,  106,  107,  108
  109, 1026, 1146, 1237, 1328, 1419, 1510, 1601, 1692, 1783, 1874, 1965, 2056, 2147, 2238, 2329
 2420, 2598, 2689, 2780, 2871, 2962, 3053, 3144, 3235, 3326, 3417, 3508, 3599, 3690, 3781, 3872
 3963,
*Elset, elset=Clamped
    1,   61,  121,  181,  241,  301,  361,  421,  481,  541,  601,  661,  721,  781,  841,  901
 1019, 1079, 1139, 1199, 1259, 1319, 1379, 1439, 1499, 1559, 1619, 1679, 1739, 1799, 1859, 1919
*Nset, nset=Edges
    3,    4,    5,    6,   51,   52,   53,   54,   55,   56,   57,   58,   59,   60,   61,   62
   63,   64,   65,   66,   67,   68,   69,   70,   71,   72,   73,   74,   75,   76,   77,   78
   79,  110,  111,  112,  113,  114,  115,  116,  117,  118,  119,  120,  121,  122,  123,  124
  125,  126,  127,  128,  129,  130,  131,  132,  133,  134,  135,  136,  137,  138, 2422, 2425
 2428, 2431, 2434, 2437, 2440, 2443, 2446, 2449, 2452, 2455, 2458, 2461, 2464, 2467, 2470, 2473
 2476, 2479, 2482, 2485, 2488, 2491, 2494, 2497, 2500, 2503, 2506, 2509, 3877, 3881, 3884, 3887
 3890, 3893, 3896, 3899, 3902, 3905, 3908, 3911, 3914, 3917, 3920, 3923, 3926, 3929, 3932, 3935
 3938, 3941, 3944, 3947, 3950, 3953, 3956, 3959, 3962, 3965
*Elset, elset=Edges
  902,  904,  906,  908,  910,  912,  914,  916,  918,  920,  922,  924,  926,  928,  930,  932
  934,  936,  938,  940,  942,  944,  946,  948,  950,  952,  954,  956,  958,  960, 1862, 1864
 1866, 1868, 1870, 1872, 1874, 1876, 1878, 1880, 1882, 1884, 1886, 1888, 1890, 1892, 1894, 1896
 1898, 1900, 1902, 1904, 1906, 1908, 1910, 1912, 1914, 1916, 1918, 1920
*Nset, nset=P
 2,
*End Part
**  
**
** ASSEMBLY
**
*Assembly, name=Assembly
**  
*Instance, name=Part-1-1, part=Part-1
*End Instance
**  
*End Assembly
** 
** MATERIALS
** 
*Material, name=Material-1
*Elastic
30000.,0.
** ----------------------------------------------------------------
** 
** STEP: Step-1
** 
*Step, name=Step-1
*Static
1., 1., 1e-05, 1.
** 
** OUTPUT REQUESTS
** 
*Restart, write, frequency=0
*Print, solve=NO
** 
** FIELD OUTPUT: F-Output-1
** 
*Output, field, variable=PRESELECT
** 
** HISTORY OUTPUT: H-Output-1
** 
*Output, history, variable=PRESELECT
*End Step
