*Heading
** Job name: pinch_hemi_01 Model name: Hemisphere
** Generated by: Abaqus/CAE 6.12-1
*Preprint, echo=NO, model=NO, history=NO, contact=NO
**
** PARTS
**
*Part, name=Part-1
*Node
      1,           0.,   0.95105654, -0.309017003
      2,           0.,           0.,          -1.
      3,          -1.,           0.,           0.
      4, -0.309017003,   0.95105654,           0.
      5,           0.,           0.,           1.
      6,           0.,   0.95105654,  0.309017003
      7,  0.309017003,   0.95105654,           0.
      8,           1.,           0.,           0.
      9,           0.,  0.916792214, -0.399364591
     10,           0.,  0.873968005, -0.485983402
     11,           0.,  0.822983861, -0.568064749
     12,           0.,  0.764315724, -0.644842207
     13,           0.,  0.698511362, -0.715598941
     14,           0.,  0.626185179, -0.779674351
     15,           0.,  0.548012495, -0.836470127
     16,           0.,   0.46472317, -0.885456026
     17,           0.,  0.377094835, -0.926174641
     18,           0.,  0.285945684, -0.958245814
     19,           0.,  0.192126721, -0.981370151
     20,           0., 0.0965139195, -0.995331645
** ... 3436 like lines cut
*Element, type=STRI65
  1,    1,    9,  177,  897,  898,  899
  2,  177,   62,    1,  900,  901,  899
  3,    9,   10,  178,  902,  903,  904
  4,  178,  177,    9,  905,  898,  904
  5,   10,   11,  179,  906,  907,  908
  6,  179,  178,   10,  909,  903,  908
  7,   11,   12,  180,  910,  911,  912
  8,  180,  179,   11,  913,  907,  912
  9,   12,   13,  181,  914,  915,  916
 10,  181,  180,   12,  917,  911,  916
 11,   13,   14,  182,  918,  919,  920
 12,  182,  181,   13,  921,  915,  920
 13,   14,   15,  183,  922,  923,  924
 14,  183,  182,   14,  925,  919,  924
 15,   15,   16,  184,  926,  927,  928
 16,  184,  183,   15,  929,  923,  928
 17,   16,   17,  185,  930,  931,  932
 18,  185,  184,   16,  933,  927,  932
 19,   17,   18,  186,  934,  935,  936
 20,  186,  185,   17,  937,  931,  936
** ... 1644 like lines cut
*Nset, nset=_PickedSet21, internal, generate
    1,  3456,     1
*Elset, elset=_PickedSet21, internal, generate
    1,  1664,     1
*Nset, nset=Set-1
    1,    2,    3,    4,    5,    6,    7,    8,    9,   10,   11,   12,   13,   14,   15,   16
   17,   18,   19,   20,   21,   22,   23,   24,   25,   26,   27,   28,   29,   30,   31,   32
   33,   34,   35,   36,   37,   38,   39,   40,   41,   42,   43,   44,   45,   46,   47,   48
   49,   50,   51,   52,   53,   54,   55,   56,   57,   58,   59,   60,   61,   62,   63,   64
   65,   66,   67,   68,   69,   70,   71,   72,   73,   74,   75,   76,   77,   78,   79,   80
   81,   82,   83,   84,   85,   86,   87,   88,   89,   90,   91,   92,   93,   94,   95,   96
   97,   98,   99,  100,  101,  102,  103,  104,  105,  106,  107,  108,  109,  110,  111,  112
  113,  114,  115,  116,  117,  118,  119,  120,  121,  122,  123,  124,  125,  126,  127,  128
  129,  130,  131,  132,  133,  134,  135,  136,  137,  138,  139,  140,  141,  142,  143,  144
  145,  146,  147,  148,  149,  150,  151,  152,  153,  154,  155,  156,  157,  158,  159,  160
  161,  162,  163,  164,  165,  166,  167,  168,  169,  170,  171,  172,  173,  174,  175,  176
  897,  901,  902,  906,  910,  914,  918,  922,  926,  930,  934,  938,  942,  946,  947,  953
  987,  993, 1027, 1033, 1067, 1073, 1107, 1113, 1147, 1153, 1187, 1193, 1227, 1233, 1267, 1273
 1307, 1313, 1347, 1353, 1387, 1393, 1427, 1433, 1467, 1473, 1507, 1512, 1513, 1516, 1519, 1522
 1525, 1528, 1531, 1534, 1537, 1540, 1543, 1546, 1547, 1549, 1550, 1552, 1555, 1559, 1563, 1567
 1571, 1575, 1579, 1583, 1587, 1591, 1595, 1599, 1601, 1604, 1641, 1644, 1681, 1684, 1721, 1724
 1761, 1764, 1801, 1804, 1841, 1844, 1881, 1884, 1921, 1924, 1961, 1964, 2001, 2004, 2041, 2044
 2081, 2084, 2121, 2124, 2161, 2164, 2189, 2191, 2228, 2231, 2268, 2271, 2308, 2311, 2348, 2351
 2388, 2391, 2428, 2431, 2468, 2471, 2508, 2511, 2548, 2551, 2588, 2591, 2628, 2631, 2668, 2671
 2708, 2711, 2748, 2751, 2788, 2791, 2793, 2796, 2799, 2802, 2805, 2808, 2811, 2814, 2817, 2820
 2823, 2826, 2828, 2829, 2833, 2867, 2873, 2907, 2913, 2947, 2953, 2987, 2993, 3027, 3033, 3067
 3073, 3107, 3113, 3147, 3153, 3187, 3193, 3227, 3233, 3267, 3273, 3307, 3313, 3347, 3353, 3387
 3393, 3427, 3432, 3455
*Elset, elset=Set-1
    1,    2,    3,    5,    7,    9,   11,   13,   15,   17,   19,   21,   23,   25,   28,   51
   54,   77,   80,  103,  106,  129,  132,  155,  158,  181,  184,  207,  210,  233,  236,  259
  262,  285,  288,  311,  314,  337,  340,  363,  366,  389,  392,  394,  396,  398,  400,  402
  404,  406,  408,  410,  412,  414,  415,  416,  417,  419,  421,  423,  425,  427,  429,  431
  433,  435,  437,  439,  441,  442,  443,  468,  469,  494,  495,  520,  521,  546,  547,  572
  573,  598,  599,  624,  625,  650,  651,  676,  677,  702,  703,  728,  729,  754,  755,  780
  781,  806,  807,  808,  810,  812,  814,  816,  818,  820,  822,  824,  826,  828,  830,  832
  833,  835,  837,  839,  841,  843,  845,  847,  849,  851,  853,  855,  857,  858,  859,  884
  885,  910,  911,  936,  937,  962,  963,  988,  989, 1014, 1015, 1040, 1041, 1066, 1067, 1092
 1093, 1118, 1119, 1144, 1145, 1170, 1171, 1196, 1197, 1222, 1223, 1224, 1226, 1228, 1230, 1232
 1234, 1236, 1238, 1240, 1242, 1244, 1246, 1248, 1249, 1250, 1251, 1253, 1255, 1257, 1259, 1261
 1263, 1265, 1267, 1269, 1271, 1273, 1276, 1299, 1302, 1325, 1328, 1351, 1354, 1377, 1380, 1403
 1406, 1429, 1432, 1455, 1458, 1481, 1484, 1507, 1510, 1533, 1536, 1559, 1562, 1585, 1588, 1611
 1614, 1637, 1640, 1642, 1644, 1646, 1648, 1650, 1652, 1654, 1656, 1658, 1660, 1662, 1663, 1664
*Nset, nset=X0Y0Z-1
 2,
*Nset, nset=Z0Y0Z1
 5,
*Nset, nset=X1Y0Z0
 8,
*Nset, nset=X-1Y0Z0
 3,
** Section: Section-1
*Shell Section, elset=_PickedSet21, material=Material-1
0.004, 5
*End Part
**  
**
** ASSEMBLY
**
*Assembly, name=Assembly
**  
*Instance, name=Part-1-1, part=Part-1
*End Instance
**  
*End Assembly
** 
** MATERIALS
** 
*Material, name=Material-1
*Elastic
 6e+09, 0.3
