*Heading
** Job name: pinch_hemi_25 Model name: Model-1
** Generated by: Abaqus/CAE 6.12-1
*Preprint, echo=NO, model=NO, history=NO, contact=NO
**
** PARTS
**
*Part, name=Part-1
*Node
      1,           0.,    9.5105648,  -3.09016991
      2,           0.,           0.,         -10.
      3,         -10.,           0.,           0.
      4,  -3.09016991,    9.5105648,           0.
      5,           0.,           0.,          10.
      6,           0.,    9.5105648,   3.09016991
      7,   3.09016991,    9.5105648,           0.
      8,          10.,           0.,           0.
      9,           0.,   8.44327927,  -5.35826778
     10,           0.,   6.84547091,   -7.2896862
     11,           0.,   4.81753683,  -8.76306725
     12,           0.,    2.4868989,  -9.68583202
     13,  -2.58819056,           0.,  -9.65925789
     14,          -5.,           0.,  -8.66025448
     15,  -7.07106781,           0.,  -7.07106781
     16,  -8.66025448,           0.,          -5.
     17,  -9.65925789,           0.,  -2.58819056
     18,  -9.68583202,    2.4868989,           0.
     19,  -8.76306725,   4.81753683,           0.
     20,   -7.2896862,   6.84547091,           0.
** ... 508 like lines cut
*Element, type=STRI65
 1,   1,   9,  65, 145, 146, 147
 2,  65,  26,   1, 148, 149, 147
 3,   9,  10,  66, 150, 151, 152
 4,  66,  65,   9, 153, 146, 152
 5,  10,  11,  67, 154, 155, 156
 6,  67,  66,  10, 157, 151, 156
 7,  11,  12,  68, 158, 159, 160
 8,  68,  67,  11, 161, 155, 160
 9,  12,   2,  13, 162, 163, 164
10,  13,  68,  12, 165, 159, 164
11,  26,  65,  69, 148, 166, 167
12,  69,  25,  26, 168, 169, 167
13,  65,  66,  70, 153, 170, 171
14,  70,  69,  65, 172, 166, 171
15,  66,  67,  71, 157, 173, 174
16,  71,  70,  66, 175, 170, 174
17,  67,  68,  72, 161, 176, 177
18,  72,  71,  67, 178, 173, 177
19,  68,  13,  14, 165, 179, 180
20,  14,  72,  68, 181, 176, 180
** ... 220 like lines cut
*Nset, nset=_PickedSet21, internal, generate
   1,  528,    1
*Elset, elset=_PickedSet21, internal, generate
   1,  240,    1
*Nset, nset=X0Y0Z-1
 2,
*Nset, nset=X0Y0Z1
 5,
*Nset, nset=X1Y0Z0
 8,
*Nset, nset=X-1Y0Z0
 3,
*Nset, nset=X-1Y1Z0
 4,
*Nset, nset=X0Y1Z-1
 1,
*Nset, nset=X0Y1Z1
 6,
*Nset, nset=X1Y1Z0
 7,
** Section: Section-1
*Shell Section, elset=_PickedSet21, material=Material-1
0.004, 5
*End Part
**  
**
** ASSEMBLY
**
*Assembly, name=Assembly
**  
*Instance, name=Part-1-1, part=Part-1
*End Instance
**  
*End Assembly
** 
** MATERIALS
** 
*Material, name=Material-1
*Elastic
 6e+09, 0.3
** ----------------------------------------------------------------
** 
** STEP: Step-1
** 
*Step, name=Step-1, inc=1000
*Static
0.1, 5., 5e-05, 0.1
** 
** OUTPUT REQUESTS
** 
*Restart, write, frequency=0
*Print, solve=NO
** 
** FIELD OUTPUT: F-Output-1
** 
*Output, field, variable=PRESELECT
** 
** HISTORY OUTPUT: H-Output-1
** 
*Output, history, variable=PRESELECT
*End Step
