*Heading
** Job name: pinch_hemi_12 Model name: Model-1
** Generated by: Abaqus/CAE 6.12-1
*Preprint, echo=NO, model=NO, history=NO, contact=NO
**
** PARTS
**
*Part, name=Part-1
*Node
      1,           0.,    9.5105648,  -3.09016991
      2,           0.,           0.,         -10.
      3,         -10.,           0.,           0.
      4,  -3.09016991,    9.5105648,           0.
      5,           0.,           0.,          10.
      6,           0.,    9.5105648,   3.09016991
      7,   3.09016991,    9.5105648,           0.
      8,          10.,           0.,           0.
      9,           0.,   9.04827023,  -4.25779295
     10,           0.,   8.44327927,  -5.35826778
     11,           0.,   7.70513248,  -6.37423992
     12,           0.,   6.84547091,   -7.2896862
     13,           0.,   5.87785244,  -8.09016991
     14,           0.,   4.81753683,  -8.76306725
     15,           0.,   3.68124557,  -9.29776478
     16,           0.,    2.4868989,  -9.68583202
     17,           0.,   1.25333238,  -9.92114735
     18,  -1.20536685,           0.,  -9.92708874
     19,  -2.39315653,           0.,   -9.7094183
     20,  -3.54604888,           0.,  -9.35016251
** ... 2164 like lines cut
*Element, type=STRI65
  1,   1,   9, 141, 573, 574, 575
  2, 141,  50,   1, 576, 577, 575
  3,   9,  10, 142, 578, 579, 580
  4, 142, 141,   9, 581, 574, 580
  5,  10,  11, 143, 582, 583, 584
  6, 143, 142,  10, 585, 579, 584
  7,  11,  12, 144, 586, 587, 588
  8, 144, 143,  11, 589, 583, 588
  9,  12,  13, 145, 590, 591, 592
 10, 145, 144,  12, 593, 587, 592
 11,  13,  14, 146, 594, 595, 596
 12, 146, 145,  13, 597, 591, 596
 13,  14,  15, 147, 598, 599, 600
 14, 147, 146,  14, 601, 595, 600
 15,  15,  16, 148, 602, 603, 604
 16, 148, 147,  15, 605, 599, 604
 17,  16,  17, 149, 606, 607, 608
 18, 149, 148,  16, 609, 603, 608
 19,  17,   2,  18, 610, 611, 612
 20,  18, 149,  17, 613, 607, 612
** ... 1020 like lines cut
*Nset, nset=_PickedSet21, internal, generate
    1,  2184,     1
*Elset, elset=_PickedSet21, internal, generate
    1,  1040,     1
*Nset, nset=X0Y0Z-1
 2,
*Nset, nset=X0Y0Z1
 5,
*Nset, nset=X1Y0Z0
 8,
*Nset, nset=X-1Y0Z0
 3,
*Nset, nset=X-1Y1Z0
 4,
*Nset, nset=X0Y1Z-1
 1,
*Nset, nset=X0Y1Z1
 6,
*Nset, nset=X1Y1Z0
 7,
** Section: Section-1
*Shell Section, elset=_PickedSet21, material=Material-1
0.004, 5
*End Part
**  
**
** ASSEMBLY
**
*Assembly, name=Assembly
**  
*Instance, name=Part-1-1, part=Part-1
*End Instance
**  
*End Assembly
** 
** MATERIALS
** 
*Material, name=Material-1
*Elastic
 6e+09, 0.3
** ----------------------------------------------------------------
** 
** STEP: Step-1
** 
*Step, name=Step-1, inc=1000
*Static
0.1, 5., 5e-05, 0.1
** 
** OUTPUT REQUESTS
** 
*Restart, write, frequency=0
*Print, solve=NO
** 
** FIELD OUTPUT: F-Output-1
** 
*Output, field, variable=PRESELECT
** 
** HISTORY OUTPUT: H-Output-1
** 
*Output, history, variable=PRESELECT
*End Step
