*Heading
** Job name: pinch_hemi_02 Model name: Hemisphere
** Generated by: Abaqus/CAE 6.12-1
*Preprint, echo=NO, model=NO, history=NO, contact=NO
**
** PARTS
**
*Part, name=Part-1
*Node
      1,           0.,   0.95105654, -0.309017003
      2,           0.,           0.,          -1.
      3,          -1.,           0.,           0.
      4, -0.309017003,   0.95105654,           0.
      5,           0.,           0.,           1.
      6,           0.,   0.95105654,  0.309017003
      7,  0.309017003,   0.95105654,           0.
      8,           1.,           0.,           0.
      9,           0.,  0.866025388,         -0.5
     10,           0.,   0.74314481, -0.669130623
     11,           0.,  0.587785244, -0.809017003
     12,           0.,  0.406736642,  -0.91354543
     13,           0.,  0.207911685, -0.978147626
     14, -0.195090324,           0., -0.980785251
     15, -0.382683426,           0., -0.923879504
     16, -0.555570245,           0., -0.831469595
     17, -0.707106769,           0., -0.707106769
     18, -0.831469595,           0., -0.555570245
     19, -0.923879504,           0., -0.382683426
     20, -0.980785251,           0., -0.195090324
** ... 812 like lines cut
*Element, type=STRI65
 1,   1,   9,  85, 225, 226, 227
 2,  85,  32,   1, 228, 229, 227
 3,   9,  10,  86, 230, 231, 232
 4,  86,  85,   9, 233, 226, 232
 5,  10,  11,  87, 234, 235, 236
 6,  87,  86,  10, 237, 231, 236
 7,  11,  12,  88, 238, 239, 240
 8,  88,  87,  11, 241, 235, 240
 9,  12,  13,  89, 242, 243, 244
10,  89,  88,  12, 245, 239, 244
11,  13,   2,  14, 246, 247, 248
12,  14,  89,  13, 249, 243, 248
13,  32,  85,  90, 228, 250, 251
14,  90,  31,  32, 252, 253, 251
15,  85,  86,  91, 233, 254, 255
16,  91,  90,  85, 256, 250, 255
17,  86,  87,  92, 237, 257, 258
18,  92,  91,  86, 259, 254, 258
19,  87,  88,  93, 241, 260, 261
20,  93,  92,  87, 262, 257, 261
** ... 364 like lines cut
*Nset, nset=_PickedSet21, internal, generate
   1,  832,    1
*Elset, elset=_PickedSet21, internal, generate
   1,  384,    1
*Nset, nset=Set-1
   1,   2,   3,   4,   5,   6,   7,   8,   9,  10,  11,  12,  13,  14,  15,  16
  17,  18,  19,  20,  21,  22,  23,  24,  25,  26,  27,  28,  29,  30,  31,  32
  33,  34,  35,  36,  37,  38,  39,  40,  41,  42,  43,  44,  45,  46,  47,  48
  49,  50,  51,  52,  53,  54,  55,  56,  57,  58,  59,  60,  61,  62,  63,  64
  65,  66,  67,  68,  69,  70,  71,  72,  73,  74,  75,  76,  77,  78,  79,  80
  81,  82,  83,  84, 225, 229, 230, 234, 238, 242, 246, 247, 253, 266, 272, 285
 291, 304, 310, 323, 329, 342, 348, 361, 366, 367, 370, 373, 376, 379, 380, 382
 383, 385, 388, 392, 396, 400, 404, 406, 409, 425, 428, 444, 447, 463, 466, 482
 485, 501, 504, 520, 523, 534, 536, 552, 555, 571, 574, 590, 593, 609, 612, 628
 631, 647, 650, 666, 669, 671, 674, 677, 680, 683, 685, 686, 690, 703, 709, 722
 728, 741, 747, 760, 766, 779, 785, 798, 804, 817, 822, 831
*Elset, elset=Set-1
   1,   2,   3,   5,   7,   9,  11,  14,  23,  26,  35,  38,  47,  50,  59,  62
  71,  74,  83,  86,  88,  90,  92,  94,  95,  96,  97,  99, 101, 103, 105, 107
 108, 109, 120, 121, 132, 133, 144, 145, 156, 157, 168, 169, 180, 181, 182, 184
 186, 188, 190, 192, 193, 195, 197, 199, 201, 203, 204, 205, 216, 217, 228, 229
 240, 241, 252, 253, 264, 265, 276, 277, 278, 280, 282, 284, 286, 288, 289, 290
 291, 293, 295, 297, 299, 302, 311, 314, 323, 326, 335, 338, 347, 350, 359, 362
 371, 374, 376, 378, 380, 382, 383, 384
*Nset, nset=X0Y0Z-1
 2,
*Nset, nset=Z0Y0Z1
 5,
*Nset, nset=X1Y0Z0
 8,
*Nset, nset=X-1Y0Z0
 3,
** Section: Section-1
*Shell Section, elset=_PickedSet21, material=Material-1
0.004, 5
*End Part
**  
**
** ASSEMBLY
**
*Assembly, name=Assembly
**  
*Instance, name=Part-1-1, part=Part-1
*End Instance
**  
*End Assembly
** 
** MATERIALS
** 
*Material, name=Material-1
*Elastic
 6e+09, 0.3
