*Heading
** Job name: pinch_hemi_015 Model name: Hemisphere
** Generated by: Abaqus/CAE 6.12-1
*Preprint, echo=NO, model=NO, history=NO, contact=NO
**
** PARTS
**
*Part, name=Part-1
*Node
      1,           0.,   0.95105654, -0.309017003
      2,           0.,           0.,          -1.
      3,          -1.,           0.,           0.
      4, -0.309017003,   0.95105654,           0.
      5,           0.,           0.,           1.
      6,           0.,   0.95105654,  0.309017003
      7,  0.309017003,   0.95105654,           0.
      8,           1.,           0.,           0.
      9,           0.,  0.891006529, -0.453990489
     10,           0.,  0.809017003, -0.587785244
     11,           0.,  0.707106769, -0.707106769
     12,           0.,  0.587785244, -0.809017003
     13,           0.,  0.453990489, -0.891006529
     14,           0.,  0.309017003,  -0.95105654
     15,           0.,  0.156434461, -0.987688363
     16, -0.156434461,           0., -0.987688363
     17, -0.309017003,           0.,  -0.95105654
     18, -0.453990489,           0., -0.891006529
     19, -0.587785244,           0., -0.809017003
     20, -0.707106769,           0., -0.707106769
** ... 1340 like lines cut
*Element, type=STRI65
  1,   1,   9, 109, 361, 362, 363
  2, 109,  40,   1, 364, 365, 363
  3,   9,  10, 110, 366, 367, 368
  4, 110, 109,   9, 369, 362, 368
  5,  10,  11, 111, 370, 371, 372
  6, 111, 110,  10, 373, 367, 372
  7,  11,  12, 112, 374, 375, 376
  8, 112, 111,  11, 377, 371, 376
  9,  12,  13, 113, 378, 379, 380
 10, 113, 112,  12, 381, 375, 380
 11,  13,  14, 114, 382, 383, 384
 12, 114, 113,  13, 385, 379, 384
 13,  14,  15, 115, 386, 387, 388
 14, 115, 114,  14, 389, 383, 388
 15,  15,   2,  16, 390, 391, 392
 16,  16, 115,  15, 393, 387, 392
 17,  40, 109, 116, 364, 394, 395
 18, 116,  39,  40, 396, 397, 395
 19, 109, 110, 117, 369, 398, 399
 20, 117, 116, 109, 400, 394, 399
** ... 620 like lines cut
*Nset, nset=_PickedSet21, internal, generate
    1,  1360,     1
*Elset, elset=_PickedSet21, internal, generate
   1,  640,    1
*Nset, nset=Set-1
    1,    2,    3,    4,    5,    6,    7,    8,    9,   10,   11,   12,   13,   14,   15,   16
   17,   18,   19,   20,   21,   22,   23,   24,   25,   26,   27,   28,   29,   30,   31,   32
   33,   34,   35,   36,   37,   38,   39,   40,   41,   42,   43,   44,   45,   46,   47,   48
   49,   50,   51,   52,   53,   54,   55,   56,   57,   58,   59,   60,   61,   62,   63,   64
   65,   66,   67,   68,   69,   70,   71,   72,   73,   74,   75,   76,   77,   78,   79,   80
   81,   82,   83,   84,   85,   86,   87,   88,   89,   90,   91,   92,   93,   94,   95,   96
   97,   98,   99,  100,  101,  102,  103,  104,  105,  106,  107,  108,  361,  365,  366,  370
  374,  378,  382,  386,  390,  391,  397,  416,  422,  441,  447,  466,  472,  491,  497,  516
  522,  541,  547,  566,  572,  591,  596,  597,  600,  603,  606,  609,  612,  615,  616,  618
  619,  621,  624,  628,  632,  636,  640,  644,  648,  650,  653,  675,  678,  700,  703,  725
  728,  750,  753,  775,  778,  800,  803,  825,  828,  850,  853,  868,  870,  892,  895,  917
  920,  942,  945,  967,  970,  992,  995, 1017, 1020, 1042, 1045, 1067, 1070, 1092, 1095, 1097
 1100, 1103, 1106, 1109, 1112, 1115, 1117, 1118, 1122, 1141, 1147, 1166, 1172, 1191, 1197, 1216
 1222, 1241, 1247, 1266, 1272, 1291, 1297, 1316, 1322, 1341, 1346, 1359
*Elset, elset=Set-1
   1,   2,   3,   5,   7,   9,  11,  13,  15,  18,  31,  34,  47,  50,  63,  66
  79,  82,  95,  98, 111, 114, 127, 130, 143, 146, 148, 150, 152, 154, 156, 158
 159, 160, 161, 163, 165, 167, 169, 171, 173, 175, 176, 177, 192, 193, 208, 209
 224, 225, 240, 241, 256, 257, 272, 273, 288, 289, 304, 305, 306, 308, 310, 312
 314, 316, 318, 320, 321, 323, 325, 327, 329, 331, 333, 335, 336, 337, 352, 353
 368, 369, 384, 385, 400, 401, 416, 417, 432, 433, 448, 449, 464, 465, 466, 468
 470, 472, 474, 476, 478, 480, 481, 482, 483, 485, 487, 489, 491, 493, 495, 498
 511, 514, 527, 530, 543, 546, 559, 562, 575, 578, 591, 594, 607, 610, 623, 626
 628, 630, 632, 634, 636, 638, 639, 640
*Nset, nset=X0Y0Z-1
 2,
*Nset, nset=Z0Y0Z1
 5,
*Nset, nset=X1Y0Z0
 8,
*Nset, nset=X-1Y0Z0
 3,
** Section: Section-1
*Shell Section, elset=_PickedSet21, material=Material-1
0.004, 5
*End Part
**  
**
** ASSEMBLY
**
*Assembly, name=Assembly
**  
*Instance, name=Part-1-1, part=Part-1
*End Instance
**  
*End Assembly
** 
** MATERIALS
** 
*Material, name=Material-1
*Elastic
 6e+09, 0.3
