*Heading
** Job name: pinch_hemi_20 Model name: Model-1
** Generated by: Abaqus/CAE 6.12-1
*Preprint, echo=NO, model=NO, history=NO, contact=NO
**
** PARTS
**
*Part, name=Part-1
*Node
      1,           0.,    9.5105648,  -3.09016991
      2,           0.,           0.,         -10.
      3,         -10.,           0.,           0.
      4,  -3.09016991,    9.5105648,           0.
      5,           0.,           0.,          10.
      6,           0.,    9.5105648,   3.09016991
      7,   3.09016991,    9.5105648,           0.
      8,          10.,           0.,           0.
      9,           0.,   8.66025448,          -5.
     10,           0.,   7.43144846,  -6.69130611
     11,           0.,   5.87785244,  -8.09016991
     12,           0.,    4.0673666,  -9.13545418
     13,           0.,   2.07911682,  -9.78147602
     14,  -1.95090318,           0.,  -9.80785275
     15,  -3.82683444,           0.,  -9.23879528
     16,  -5.55570221,           0.,  -8.31469631
     17,  -7.07106781,           0.,  -7.07106781
     18,  -8.31469631,           0.,  -5.55570221
     19,  -9.23879528,           0.,  -3.82683444
     20,  -9.80785275,           0.,  -1.95090318
** ... 812 like lines cut
*Element, type=STRI65
 1,   1,   9,  32, 225, 226, 227
 2,   9,  85,  32, 228, 229, 226
 3,   9,  10,  85, 230, 231, 228
 4,  10,  86,  85, 232, 233, 231
 5,  10,  11,  86, 234, 235, 232
 6,  11,  87,  86, 236, 237, 235
 7,  11,  12,  87, 238, 239, 236
 8,  12,  88,  87, 240, 241, 239
 9,  12,  13,  88, 242, 243, 240
10,  13,  89,  88, 244, 245, 243
11,  13,   2,  89, 246, 247, 244
12,   2,  14,  89, 248, 249, 247
13,  32,  85,  31, 229, 250, 251
14,  85,  90,  31, 252, 253, 250
15,  85,  86,  90, 233, 254, 252
16,  86,  91,  90, 255, 256, 254
17,  86,  87,  91, 237, 257, 255
18,  87,  92,  91, 258, 259, 257
19,  87,  88,  92, 241, 260, 258
20,  88,  93,  92, 261, 262, 260
** ... 364 like lines cut
*Nset, nset=_PickedSet21, internal, generate
   1,  832,    1
*Elset, elset=_PickedSet21, internal, generate
   1,  384,    1
*Nset, nset=X0Y0Z-1
 2,
*Nset, nset=X0Y0Z1
 5,
*Nset, nset=X1Y0Z0
 8,
*Nset, nset=X-1Y0Z0
 3,
*Nset, nset=X-1Y1Z0
 4,
*Nset, nset=X0Y1Z-1
 1,
*Nset, nset=X0Y1Z1
 6,
*Nset, nset=X1Y1Z0
 7,
** Section: Section-1
*Shell Section, elset=_PickedSet21, material=Material-1
0.004, 5
*End Part
**  
**
** ASSEMBLY
**
*Assembly, name=Assembly
**  
*Instance, name=Part-1-1, part=Part-1
*End Instance
**  
*End Assembly
** 
** MATERIALS
** 
*Material, name=Material-1
*Elastic
 6e+09, 0.3
** ----------------------------------------------------------------
** 
** STEP: Step-1
** 
*Step, name=Step-1, inc=1000
*Static
0.1, 5., 5e-05, 0.1
** 
** OUTPUT REQUESTS
** 
*Restart, write, frequency=0
*Print, solve=NO
** 
** FIELD OUTPUT: F-Output-1
** 
*Output, field, variable=PRESELECT
** 
** HISTORY OUTPUT: H-Output-1
** 
*Output, history, variable=PRESELECT
*End Step
