*Heading
** Job name: Ring_plate_12 Model name: Ring_plate
** Generated by: Abaqus/CAE 6.12-1
*Preprint, echo=NO, model=NO, history=NO, contact=NO
**
** PARTS
**
*Part, name=Part-1
*Node
      1,   9.99998474,           0., -0.0174532831
      2,   8.66665363,           0., -0.015126179
      3,   7.33332205,           0., -0.0127990749
      4,   5.99999094,           0., -0.0104719698
      5,   9.88019085,           0.,  -1.54331863
      6,   8.56283188,           0.,  -1.33754289
      7,   7.24547338,           0.,  -1.13176703
      8,   5.92811441,           0., -0.925991178
      9,   9.52894211,           0.,  -3.03303003
     10,   8.25841618,           0.,  -2.62862611
     11,   6.98789072,           0.,  -2.22422194
     12,   5.71736479,           0.,  -1.81981802
     13,   8.95446587,           0.,  -4.45168924
     14,   7.76053715,           0.,  -3.85813069
     15,   6.56660843,           0.,  -3.26457214
     16,   5.37267971,           0.,  -2.67101359
     17,   8.17022228,           0.,  -5.76606226
     18,   7.08085918,           0.,  -4.99725389
     19,   5.99149609,           0.,  -4.22844553
     20,   4.90213299,           0.,   -3.4596374
** ... 561 like lines cut
*Element, type=STRI65
  1,   1,   2,   5, 169, 170, 171
  2,   2,   6,   5, 172, 173, 170
  3,   2,   3,   6, 174, 175, 172
  4,   3,   7,   6, 176, 177, 175
  5,   3,   4,   7, 178, 179, 176
  6,   4,   8,   7, 180, 181, 179
  7,   5,   6,   9, 173, 182, 183
  8,   6,  10,   9, 184, 185, 182
  9,   6,   7,  10, 177, 186, 184
 10,   7,  11,  10, 187, 188, 186
 11,   7,   8,  11, 181, 189, 187
 12,   8,  12,  11, 190, 191, 189
 13,   9,  10,  13, 185, 192, 193
 14,  10,  14,  13, 194, 195, 192
 15,  10,  11,  14, 188, 196, 194
 16,  11,  15,  14, 197, 198, 196
 17,  11,  12,  15, 191, 199, 197
 18,  12,  16,  15, 200, 201, 199
 19,  13,  14,  17, 195, 202, 203
 20,  14,  18,  17, 204, 205, 202
** ... 226 like lines cut
*Nset, nset=Clamped
 165, 166, 167, 168, 575, 578, 581
*Elset, elset=Clamped, generate
 242,  246,    2
*Nset, nset=_PickedSet8, internal, generate
   1,  581,    1
*Elset, elset=_PickedSet8, internal, generate
   1,  246,    1
*Nset, nset=Edge_nodes
 1, 4
*Nset, nset=Mid_nodes
 169, 174, 178
*Nset, nset=Double_nodes
 2, 3
** Section: Section-1
*Shell Section, elset=_PickedSet8, material=Material-1
0.03, 5
*End Part
**  
**
** ASSEMBLY
**
*Assembly, name=Assembly
**  
*Instance, name=Part-1-1, part=Part-1
*End Instance
**  
*Nset, nset=_PickedSet4, internal, instance=Part-1-1
   1,   2,   3,   4, 169, 174, 178
*Elset, elset=_PickedSet4, internal, instance=Part-1-1, generate
 1,  5,  2
*Elset, elset=__PickedSurf5_E2, internal, instance=Part-1-1, generate
 242,  246,    2
*Surface, type=ELEMENT, name=_PickedSurf5, internal
__PickedSurf5_E2, E2
*End Assembly
** 
** MATERIALS
** 
*Material, name=Material-1
*Elastic
 2.1e+11,0.
** 
** BOUNDARY CONDITIONS
** 
** Name: BC-1 Type: Displacement/Rotation
*Boundary
_PickedSet4, 1, 1
_PickedSet4, 2, 2
_PickedSet4, 3, 3
_PickedSet4, 4, 4
_PickedSet4, 5, 5
_PickedSet4, 6, 6
** ----------------------------------------------------------------
** 
** STEP: Step-1
** 
*Step, name=Step-1, nlgeom=YES, inc=10000
*Static
0.01, 1., 1e-05, 0.01
** 
** LOADS
** 
** Name: Load-1   Type: Shell edge load
*Dsload
_PickedSurf5, EDTRA, 100.
** 
** OUTPUT REQUESTS
** 
*Restart, write, frequency=0
*Print, solve=NO
** 
** FIELD OUTPUT: F-Output-1
** 
*Output, field, variable=PRESELECT
** 
** HISTORY OUTPUT: H-Output-1
** 
*Output, history, variable=PRESELECT
*End Step
