*Heading
** Job name: Ring_plate_08 Model name: Ring_plate
** Generated by: Abaqus/CAE 6.12-1
*Preprint, echo=NO, model=NO, history=NO, contact=NO
**
** PARTS
**
*Part, name=Part-1
*Node
      1,   9.99998474,           0., -0.0174532831
      2,   9.19998646,           0., -0.0160570201
      3,   8.39998722,           0., -0.014660758
      4,   7.59998846,           0., -0.0132644959
      5,    6.7999897,           0., -0.0118682329
      6,   5.99999094,           0., -0.0104719698
      7,   9.94858265,           0.,  -1.01276791
      8,   9.15269661,           0., -0.931746483
      9,   8.35680962,           0., -0.850725055
     10,    7.5609231,           0., -0.769703627
     11,   6.76503658,           0., -0.688682139
     12,   5.96914959,           0., -0.607660711
     13,   9.79836273,           0.,  -1.99802279
     14,   9.01449299,           0.,   -1.8381809
     15,    8.2306242,           0.,  -1.67833912
     16,   7.44675541,           0.,  -1.51849723
     17,   6.66288662,           0.,  -1.35865545
     18,   5.87901735,           0.,  -1.19881368
     19,   9.55081558,           0.,  -2.96343136
     20,   8.78674984,           0.,  -2.72635674
** ... 1377 like lines cut
*Element, type=STRI65
  1,    1,    2,    7,  385,  386,  387
  2,    2,    8,    7,  388,  389,  386
  3,    2,    3,    8,  390,  391,  388
  4,    3,    9,    8,  392,  393,  391
  5,    3,    4,    9,  394,  395,  392
  6,    4,   10,    9,  396,  397,  395
  7,    4,    5,   10,  398,  399,  396
  8,    5,   11,   10,  400,  401,  399
  9,    5,    6,   11,  402,  403,  400
 10,    6,   12,   11,  404,  405,  403
 11,    7,    8,   13,  389,  406,  407
 12,    8,   14,   13,  408,  409,  406
 13,    8,    9,   14,  393,  410,  408
 14,    9,   15,   14,  411,  412,  410
 15,    9,   10,   15,  397,  413,  411
 16,   10,   16,   15,  414,  415,  413
 17,   10,   11,   16,  401,  416,  414
 18,   11,   17,   16,  417,  418,  416
 19,   11,   12,   17,  405,  419,  417
 20,   12,   18,   17,  420,  421,  419
** ... 610 like lines cut
*Nset, nset=Clamped
  379,  380,  381,  382,  383,  384, 1385, 1388, 1391, 1394, 1397
*Elset, elset=Clamped, generate
 622,  630,    2
*Nset, nset=_PickedSet8, internal, generate
    1,  1397,     1
*Elset, elset=_PickedSet8, internal, generate
   1,  630,    1
*Nset, nset=Edge_nodes
 1, 6
*Nset, nset=Double_nodes, generate
 2,  5,  1
*Nset, nset=Mid_nodes
 385, 390, 394, 398, 402
** Section: Section-1
*Shell Section, elset=_PickedSet8, material=Material-1
0.03, 5
*End Part
**  
**
** ASSEMBLY
**
*Assembly, name=Assembly
**  
*Instance, name=Part-1-1, part=Part-1
*End Instance
**  
*Nset, nset=_PickedSet4, internal, instance=Part-1-1
   1,   2,   3,   4,   5,   6, 385, 390, 394, 398, 402
*Elset, elset=_PickedSet4, internal, instance=Part-1-1, generate
 1,  9,  2
*Elset, elset=__PickedSurf5_E2, internal, instance=Part-1-1, generate
 622,  630,    2
*Surface, type=ELEMENT, name=_PickedSurf5, internal
__PickedSurf5_E2, E2
*End Assembly
** 
** MATERIALS
** 
*Material, name=Material-1
*Elastic
 2.1e+11,0.
** 
** BOUNDARY CONDITIONS
** 
** Name: BC-1 Type: Displacement/Rotation
*Boundary
_PickedSet4, 1, 1
_PickedSet4, 2, 2
_PickedSet4, 3, 3
_PickedSet4, 4, 4
_PickedSet4, 5, 5
_PickedSet4, 6, 6
** ----------------------------------------------------------------
** 
** STEP: Step-1
** 
*Step, name=Step-1, nlgeom=YES, inc=10000
*Static
0.01, 1., 1e-05, 0.01
** 
** LOADS
** 
** Name: Load-1   Type: Shell edge load
*Dsload
_PickedSurf5, EDTRA, 100.
** 
** OUTPUT REQUESTS
** 
*Restart, write, frequency=0
*Print, solve=NO
** 
** FIELD OUTPUT: F-Output-1
** 
*Output, field, variable=PRESELECT
** 
** HISTORY OUTPUT: H-Output-1
** 
*Output, history, variable=PRESELECT
*End Step
