*Heading
** Job name: Ring_plate_05 Model name: Ring_plate
** Generated by: Abaqus/CAE 6.12-1
*Preprint, echo=NO, model=NO, history=NO, contact=NO
**
** PARTS
**
*Part, name=Part-1
*Node
      1,   9.99998474,           0., -0.0174532831
      2,   9.49998569,           0., -0.0165806189
      3,   8.99998665,           0., -0.0157079548
      4,   8.49998665,           0., -0.0148352915
      5,    7.9999876,           0., -0.0139626274
      6,   7.49998856,           0., -0.0130899623
      7,   6.99998951,           0., -0.0122172982
      8,   6.49998999,           0., -0.011344634
      9,   5.99999094,           0., -0.0104719698
     10,   9.97916698,           0., -0.645148933
     11,   9.48020935,           0., -0.612891495
     12,   8.98125076,           0., -0.580633998
     13,   8.48229218,           0.,  -0.54837656
     14,   7.98333406,           0., -0.516119123
     15,   7.48437548,           0., -0.483861685
     16,   6.98541737,           0., -0.451604247
     17,   6.48645878,           0.,  -0.41934678
     18,   5.98750067,           0., -0.387089342
     19,   9.91898918,           0.,  -1.27029979
     20,   9.42303944,           0.,  -1.20678484
** ... 3397 like lines cut
*Element, type=STRI65
   1,    1,    2,   11,  910,  911,  912
   2,   11,   10,    1,  913,  914,  912
   3,    2,    3,   12,  915,  916,  917
   4,   12,   11,    2,  918,  911,  917
   5,    3,    4,   13,  919,  920,  921
   6,   13,   12,    3,  922,  916,  921
   7,    4,    5,   14,  923,  924,  925
   8,   14,   13,    4,  926,  920,  925
   9,    5,    6,   15,  927,  928,  929
  10,   15,   14,    5,  930,  924,  929
  11,    6,    7,   16,  931,  932,  933
  12,   16,   15,    6,  934,  928,  933
  13,    7,    8,   17,  935,  936,  937
  14,   17,   16,    7,  938,  932,  937
  15,    8,    9,   18,  939,  940,  941
  16,   18,   17,    8,  942,  936,  941
  17,   10,   11,   20,  913,  943,  944
  18,   20,   19,   10,  945,  946,  944
  19,   11,   12,   21,  918,  947,  948
  20,   21,   20,   11,  949,  943,  948
** ... 1580 like lines cut
*Nset, nset=Clamped
  901,  902,  903,  904,  905,  906,  907,  908,  909, 3395, 3399, 3402, 3405, 3408, 3411, 3414
 3417,
*Elset, elset=Clamped, generate
 1586,  1600,     2
*Nset, nset=_PickedSet8, internal, generate
    1,  3417,     1
*Elset, elset=_PickedSet8, internal, generate
    1,  1600,     1
*Nset, nset=Edge_nodes
 1, 9
*Nset, nset=Double_nodes, generate
 2,  8,  1
*Nset, nset=Mid_nodes
 910, 915, 919, 923, 927, 931, 935, 939
** Section: Section-1
*Shell Section, elset=_PickedSet8, material=Material-1
0.03, 5
*End Part
**  
**
** ASSEMBLY
**
*Assembly, name=Assembly
**  
*Instance, name=Part-1-1, part=Part-1
*End Instance
**  
*Nset, nset=_PickedSet4, internal, instance=Part-1-1
   1,   2,   3,   4,   5,   6,   7,   8,   9, 910, 915, 919, 923, 927, 931, 935
 939,
*Elset, elset=_PickedSet4, internal, instance=Part-1-1, generate
  1,  15,   2
*Elset, elset=__PickedSurf5_E1, internal, instance=Part-1-1, generate
 1586,  1600,     2
*Surface, type=ELEMENT, name=_PickedSurf5, internal
__PickedSurf5_E1, E1
*End Assembly
** 
** MATERIALS
** 
*Material, name=Material-1
*Elastic
 2.1e+11,0.
** 
** BOUNDARY CONDITIONS
** 
** Name: BC-1 Type: Displacement/Rotation
*Boundary
_PickedSet4, 1, 1
_PickedSet4, 2, 2
_PickedSet4, 3, 3
_PickedSet4, 4, 4
_PickedSet4, 5, 5
_PickedSet4, 6, 6
** ----------------------------------------------------------------
** 
** STEP: Step-1
** 
*Step, name=Step-1, nlgeom=YES, inc=10000
*Static
0.01, 1., 1e-05, 0.01
** 
** LOADS
** 
** Name: Load-1   Type: Shell edge load
*Dsload
_PickedSurf5, EDTRA, 100.
** 
** OUTPUT REQUESTS
** 
*Restart, write, frequency=0
*Print, solve=NO
** 
** FIELD OUTPUT: F-Output-1
** 
*Output, field, variable=PRESELECT
** 
** HISTORY OUTPUT: H-Output-1
** 
*Output, history, variable=PRESELECT
*End Step
