cant_ring_.out
Cantilever ring shell element test
NonLinearStatic nsteps 101 deltaT 0.01 rtolf 5.0e-5 rtold -1.0 maxiter 25 controlmode 1 nmodules 1 lstype 3 smtype 7 manrmsteps 1 initialguess 1
vtkxml tstep_step 10 dofman_all element_all primvars 2 1 15 vars 2 1 4
domain 3dDirShell 
OutputManager tstep_step 10 dofman_all element_all
ndofman 1397 nelem 630 ncrosssect 1 nmat 1 nbc 1 nic 4 nltf 1 nset 4
node 1 coords 3 9.999984740000 0.000000000000 -0.017453283100 load 1 2
node 2 coords 3 9.199986460000 0.000000000000 -0.016057020100 load 1 4
node 3 coords 3 8.399987220000 0.000000000000 -0.014660758000 load 1 4
node 4 coords 3 7.599988460000 0.000000000000 -0.013264495900 load 1 4
node 5 coords 3 6.799989700000 0.000000000000 -0.011868232900 load 1 4
node 6 coords 3 5.999990940000 0.000000000000 -0.010471969800 load 1 2
node 7 coords 3 9.948582650000 0.000000000000 -1.012767910000 
node 8 coords 3 9.152696610000 0.000000000000 -0.931746483000 
node 9 coords 3 8.356809620000 0.000000000000 -0.850725055000 
node 10 coords 3 7.560923100000 0.000000000000 -0.769703627000 
node 11 coords 3 6.765036580000 0.000000000000 -0.688682139000 
node 12 coords 3 5.969149590000 0.000000000000 -0.607660711000 
node 13 coords 3 9.798362730000 0.000000000000 -1.998022790000 
node 14 coords 3 9.014492990000 0.000000000000 -1.838180900000 
node 15 coords 3 8.230624200000 0.000000000000 -1.678339120000 
node 16 coords 3 7.446755410000 0.000000000000 -1.518497230000 
node 17 coords 3 6.662886620000 0.000000000000 -1.358655450000 
node 18 coords 3 5.879017350000 0.000000000000 -1.198813680000 
node 19 coords 3 9.550815580000 0.000000000000 -2.963431360000 
node 20 coords 3 8.786749840000 0.000000000000 -2.726356740000 
node 21 coords 3 8.022685050000 0.000000000000 -2.489282370000 
node 22 coords 3 7.258619790000 0.000000000000 -2.252207760000 
node 23 coords 3 6.494554520000 0.000000000000 -2.015133380000 
node 24 coords 3 5.730489250000 0.000000000000 -1.778058770000 
node 25 coords 3 9.208400730000 0.000000000000 -3.899404530000 
node 26 coords 3 8.471728320000 0.000000000000 -3.587452170000 
# ... 358 like lines cut
node 385 coords 3 9.599986080000 0.000000000000 -0.016755152500 load 1 3
node 386 coords 3 9.574284550000 0.000000000000 -0.514412463000 
node 387 coords 3 9.986691470000 0.000000000000 -0.515751362000 
node 388 coords 3 9.176342010000 0.000000000000 -0.473901749000 
node 389 coords 3 9.550640110000 0.000000000000 -0.972257197000 
node 390 coords 3 8.799986840000 0.000000000000 -0.015358890400 load 1 3
node 391 coords 3 8.776342390000 0.000000000000 -0.473203629000 
node 392 coords 3 8.378398900000 0.000000000000 -0.432692915000 
node 393 coords 3 8.754753110000 0.000000000000 -0.891235769000 
node 394 coords 3 7.999987600000 0.000000000000 -0.013962627400 load 1 3
node 395 coords 3 7.978399280000 0.000000000000 -0.431994766000 
node 396 coords 3 7.580455780000 0.000000000000 -0.391484052000 
node 397 coords 3 7.958866120000 0.000000000000 -0.810214341000 
node 398 coords 3 7.199989320000 0.000000000000 -0.012566364400 load 1 3
node 399 coords 3 7.180456160000 0.000000000000 -0.390785933000 
node 400 coords 3 6.782513140000 0.000000000000 -0.350275189000 
node 401 coords 3 7.162980080000 0.000000000000 -0.729192853000 
node 402 coords 3 6.399990080000 0.000000000000 -0.011170101400 load 1 3
node 403 coords 3 6.382514000000 0.000000000000 -0.349577069000 
node 404 coords 3 5.992014880000 0.000000000000 -0.309450805000 
node 405 coords 3 6.367093090000 0.000000000000 -0.648171425000 
node 406 coords 3 9.475529670000 0.000000000000 -1.464884640000 
node 407 coords 3 9.885754590000 0.000000000000 -1.507267950000 
node 408 coords 3 9.083595280000 0.000000000000 -1.384963750000 
node 409 coords 3 9.406427380000 0.000000000000 -1.918101790000 
node 410 coords 3 8.685651780000 0.000000000000 -1.344452980000 
node 411 coords 3 8.293716430000 0.000000000000 -1.264532090000 
node 412 coords 3 8.622558590000 0.000000000000 -1.758260010000 
node 413 coords 3 7.895773890000 0.000000000000 -1.224021430000 
node 414 coords 3 7.503839490000 0.000000000000 -1.144100430000 
node 415 coords 3 7.838689800000 0.000000000000 -1.598418240000 
node 416 coords 3 7.105896000000 0.000000000000 -1.103589650000 
node 417 coords 3 6.713961600000 0.000000000000 -1.023668770000 
node 418 coords 3 7.054821010000 0.000000000000 -1.438576340000 
node 419 coords 3 6.316018100000 0.000000000000 -0.983158112000 
node 420 coords 3 5.931452750000 0.000000000000 -0.904360771000 
node 421 coords 3 6.270952220000 0.000000000000 -1.278734560000 
node 422 coords 3 9.282653810000 0.000000000000 -2.400806190000 
# ... 975 like lines cut
tr2shell7 1 nodes 6 1 2 7 385 386 387 mat 1 crossSect 1
tr2shell7 2 nodes 6 2 8 7 388 389 386 mat 1 crossSect 1
tr2shell7 3 nodes 6 2 3 8 390 391 388 mat 1 crossSect 1
tr2shell7 4 nodes 6 3 9 8 392 393 391 mat 1 crossSect 1
tr2shell7 5 nodes 6 3 4 9 394 395 392 mat 1 crossSect 1
tr2shell7 6 nodes 6 4 10 9 396 397 395 mat 1 crossSect 1
tr2shell7 7 nodes 6 4 5 10 398 399 396 mat 1 crossSect 1
tr2shell7 8 nodes 6 5 11 10 400 401 399 mat 1 crossSect 1
tr2shell7 9 nodes 6 5 6 11 402 403 400 mat 1 crossSect 1
tr2shell7 10 nodes 6 6 12 11 404 405 403 mat 1 crossSect 1
tr2shell7 11 nodes 6 7 8 13 389 406 407 mat 1 crossSect 1
tr2shell7 12 nodes 6 8 14 13 408 409 406 mat 1 crossSect 1
tr2shell7 13 nodes 6 8 9 14 393 410 408 mat 1 crossSect 1
tr2shell7 14 nodes 6 9 15 14 411 412 410 mat 1 crossSect 1
tr2shell7 15 nodes 6 9 10 15 397 413 411 mat 1 crossSect 1
tr2shell7 16 nodes 6 10 16 15 414 415 413 mat 1 crossSect 1
tr2shell7 17 nodes 6 10 11 16 401 416 414 mat 1 crossSect 1
tr2shell7 18 nodes 6 11 17 16 417 418 416 mat 1 crossSect 1
tr2shell7 19 nodes 6 11 12 17 405 419 417 mat 1 crossSect 1
tr2shell7 20 nodes 6 12 18 17 420 421 419 mat 1 crossSect 1
# ... 610 like lines cut
layeredCS 1 nlayers 1 layermaterials 1 1 thicks 1 0.03 nintegrationpoints 4
IsoLE 1 d 1. E 2.1e10. n 0.0 tAlpha 1.0
BoundaryCondition  1 loadTimeFunction 1 prescribedvalue 0.0 set 1 dofs 6 0 0 0 0 0 0
# 5 elements on the edge. 
NodalLoad 2 loadTimeFunction 1 components 7 0 133.33 0 0 0 0 0 
NodalLoad 3 loadTimeFunction 1 components 7 0 533.33 0 0 0 0 0 
NodalLoad 4 loadTimeFunction 1 components 7 0 266.66 0 0 0 0 0
PiecewiseLinFunction 1 npoints 2 t 2 0 1 f(t) 2 0 1.0
# Clamped
Set 1 nodes 11 379 380 381 382 383 384 1385 1388 1391 1394 1397
# Edge_nodes
Set 2 nodes 2 1 6
# Double_nodes
Set 3 nodes 4 2 3 4 5
# Mid_nodes
Set 4 nodes 5 385 390 394 398 402