cant_ring_12.out
Cantilever ring shell element test
NonLinearStatic nsteps 101 deltaT 0.01 rtolf 5.0e-5 rtold -1.0 maxiter 25 refloadmode 1 controlmode 1 nmodules 1 lstype 3 smtype 7 manrmsteps 1 initialguess 1
vtkxml tstep_step 10 dofman_all element_all primvars 2 1 15 vars 2 1 4
domain 3dDirShell 
OutputManager tstep_step 10 dofman_all element_all
ndofman 581 nelem 246 ncrosssect 1 nmat 1 nbc 1 nic 0 nltf 1 nset 4
node 1 coords 3 9.999984740000 0.000000000000 -0.017453283100 load 1 2
node 2 coords 3 8.666653630000 0.000000000000 -0.015126179000 load 1 4
node 3 coords 3 7.333322050000 0.000000000000 -0.012799074900 load 1 4
node 4 coords 3 5.999990940000 0.000000000000 -0.010471969800 load 1 2
node 5 coords 3 9.880190850000 0.000000000000 -1.543318630000 
node 6 coords 3 8.562831880000 0.000000000000 -1.337542890000 
node 7 coords 3 7.245473380000 0.000000000000 -1.131767030000 
node 8 coords 3 5.928114410000 0.000000000000 -0.925991178000 
node 9 coords 3 9.528942110000 0.000000000000 -3.033030030000 
node 10 coords 3 8.258416180000 0.000000000000 -2.628626110000 
node 11 coords 3 6.987890720000 0.000000000000 -2.224221940000 
node 12 coords 3 5.717364790000 0.000000000000 -1.819818020000 
node 13 coords 3 8.954465870000 0.000000000000 -4.451689240000 
node 14 coords 3 7.760537150000 0.000000000000 -3.858130690000 
node 15 coords 3 6.566608430000 0.000000000000 -3.264572140000 
node 16 coords 3 5.372679710000 0.000000000000 -2.671013590000 
node 17 coords 3 8.170222280000 0.000000000000 -5.766062260000 
node 18 coords 3 7.080859180000 0.000000000000 -4.997253890000 
node 19 coords 3 5.991496090000 0.000000000000 -4.228445530000 
node 20 coords 3 4.902132990000 0.000000000000 -3.459637400000 
node 21 coords 3 7.194580550000 0.000000000000 -6.945358750000 
node 22 coords 3 6.235303400000 0.000000000000 -6.019310950000 
node 23 coords 3 5.276025770000 0.000000000000 -5.093263150000 
node 24 coords 3 4.316748620000 0.000000000000 -4.167215350000 
# ... 44 like lines cut
node 69 coords 3 -8.600912090000 0.000000000000 -5.101402280000 load 1 3
node 70 coords 3 -7.454123970000 0.000000000000 -4.421215530000 
node 71 coords 3 -6.307335850000 0.000000000000 -3.741028310000 
node 72 coords 3 -5.160547260000 0.000000000000 -3.060841320000 
node 73 coords 3 -9.278679850000 0.000000000000 -3.729087830000 
node 74 coords 3 -8.041522980000 0.000000000000 -3.231876130000 load 1 3
node 75 coords 3 -6.804365160000 0.000000000000 -2.734664440000 
node 76 coords 3 -5.567207810000 0.000000000000 -2.237452750000 
node 77 coords 3 -9.739084240000 0.000000000000 -2.269415140000 
node 78 coords 3 -8.440539360000 0.000000000000 -1.966826560000 load 1 3
node 79 coords 3 -7.141994950000 0.000000000000 -1.664237860000 
node 80 coords 3 -5.843450550000 0.000000000000 -1.361649160000 
node 81 coords 3 -9.971338270000 0.000000000000 -0.756578982000 
node 82 coords 3 -8.641826630000 0.000000000000 -0.655701756000 
node 83 coords 3 -7.312314990000 0.000000000000 -0.554824591000 
node 84 coords 3 -5.982802870000 0.000000000000 -0.453947365000 
node 85 coords 3 -9.970003130000 0.000000000000 0.773981094000 
node 86 coords 3 -8.640668870000 0.000000000000 0.670783579000 
node 87 coords 3 -7.311335090000 0.000000000000 0.567586124000 
node 88 coords 3 -5.982001780000 0.000000000000 0.464388639000 
node 89 coords 3 -9.735108380000 0.000000000000 2.286409620000 
node 90 coords 3 -8.437093730000 0.000000000000 1.981555100000 
node 91 coords 3 -7.139079090000 0.000000000000 1.676700470000 
node 92 coords 3 -5.841064930000 0.000000000000 1.371845840000 
node 93 coords 3 -9.272157670000 0.000000000000 3.745276450000 
node 94 coords 3 -8.035869600000 0.000000000000 3.245906350000 
node 95 coords 3 -6.799582000000 0.000000000000 2.746536020000 
node 96 coords 3 -5.563294410000 0.000000000000 2.247165920000 
node 97 coords 3 -8.591995240000 0.000000000000 5.116405960000 
node 98 coords 3 -7.446396350000 0.000000000000 4.434218410000 
# ... 483 like lines cut
tr2shell7 1 nodes 6 1 2 5 169 170 171 mat 1 crossSect 1 nlgeo 1
tr2shell7 2 nodes 6 2 6 5 172 173 170 mat 1 crossSect 1 nlgeo 1
tr2shell7 3 nodes 6 2 3 6 174 175 172 mat 1 crossSect 1 nlgeo 1
tr2shell7 4 nodes 6 3 7 6 176 177 175 mat 1 crossSect 1 nlgeo 1
tr2shell7 5 nodes 6 3 4 7 178 179 176 mat 1 crossSect 1 nlgeo 1
tr2shell7 6 nodes 6 4 8 7 180 181 179 mat 1 crossSect 1 nlgeo 1
tr2shell7 7 nodes 6 5 6 9 173 182 183 mat 1 crossSect 1 nlgeo 1
tr2shell7 8 nodes 6 6 10 9 184 185 182 mat 1 crossSect 1 nlgeo 1
tr2shell7 9 nodes 6 6 7 10 177 186 184 mat 1 crossSect 1 nlgeo 1
tr2shell7 10 nodes 6 7 11 10 187 188 186 mat 1 crossSect 1 nlgeo 1
tr2shell7 11 nodes 6 7 8 11 181 189 187 mat 1 crossSect 1 nlgeo 1
tr2shell7 12 nodes 6 8 12 11 190 191 189 mat 1 crossSect 1 nlgeo 1
tr2shell7 13 nodes 6 9 10 13 185 192 193 mat 1 crossSect 1 nlgeo 1
tr2shell7 14 nodes 6 10 14 13 194 195 192 mat 1 crossSect 1 nlgeo 1
tr2shell7 15 nodes 6 10 11 14 188 196 194 mat 1 crossSect 1 nlgeo 1
tr2shell7 16 nodes 6 11 15 14 197 198 196 mat 1 crossSect 1 nlgeo 1
tr2shell7 17 nodes 6 11 12 15 191 199 197 mat 1 crossSect 1 nlgeo 1
tr2shell7 18 nodes 6 12 16 15 200 201 199 mat 1 crossSect 1 nlgeo 1
tr2shell7 19 nodes 6 13 14 17 195 202 203 mat 1 crossSect 1 nlgeo 1
tr2shell7 20 nodes 6 14 18 17 204 205 202 mat 1 crossSect 1 nlgeo 1
# ... 226 like lines cut
layeredCS 1 nlayers 1 layermaterials 1 1 thicks 1 0.03 nintegrationpoints 4
IsoLE 1 d 1. E 2.1e10. n 0.0 tAlpha 1.0
BoundaryCondition  1 loadTimeFunction 1 prescribedvalue 0.0 set 1 dofs 6 0 0 0 0 0 0
# 3 elements on the edge. 
NodalLoad 2 loadTimeFunction 1 components 7 0 222.222 0 0 0 0 0 
NodalLoad 3 loadTimeFunction 1 components 7 0 888.888 0 0 0 0 0 
NodalLoad 4 loadTimeFunction 1 components 7 0 444.444 0 0 0 0 0
PiecewiseLinFunction 1 npoints 2 t 2 0 1 f(t) 2 0 1.0
# Clamped
Set 1 nodes 7 165 166 167 168 575 578 581
# Edge_nodes
Set 2 nodes 2 1 4
# Mid_nodes
Set 3 nodes 3 169 174 178
# Double_nodes
Set 4 nodes 2 2 3
