cant_ring_05.out
Cantilever ring shell element test
NonLinearStatic nsteps 101 deltaT 0.01 rtolf 5.0e-5 rtold -1.0 maxiter 25 controlmode 1 nmodules 1 lstype 3 smtype 7 manrmsteps 1 initialguess 1
vtkxml tstep_step 10 dofman_all element_all primvars 2 1 15 vars 2 1 4
domain 3dDirShell 
OutputManager tstep_step 10 dofman_all element_all
ndofman 3417 nelem 1600 ncrosssect 1 nmat 1 nbc 4 nic 0 nltf 1 nset 4
node 1 coords 3 9.999984740000 0.000000000000 -0.017453283100 load 1 2
node 2 coords 3 9.499985690000 0.000000000000 -0.016580618900 load 1 4
node 3 coords 3 8.999986650000 0.000000000000 -0.015707954800 load 1 4
node 4 coords 3 8.499986650000 0.000000000000 -0.014835291500 load 1 4
node 5 coords 3 7.999987600000 0.000000000000 -0.013962627400 load 1 4
node 6 coords 3 7.499988560000 0.000000000000 -0.013089962300 load 1 4
node 7 coords 3 6.999989510000 0.000000000000 -0.012217298200 load 1 4
node 8 coords 3 6.499989990000 0.000000000000 -0.011344634000 load 1 4
node 9 coords 3 5.999990940000 0.000000000000 -0.010471969800 load 1 2
node 10 coords 3 9.979166980000 0.000000000000 -0.645148933000 
node 11 coords 3 9.480209350000 0.000000000000 -0.612891495000 
node 12 coords 3 8.981250760000 0.000000000000 -0.580633998000 
node 13 coords 3 8.482292180000 0.000000000000 -0.548376560000 
node 14 coords 3 7.983334060000 0.000000000000 -0.516119123000 
node 15 coords 3 7.484375480000 0.000000000000 -0.483861685000 
node 16 coords 3 6.985417370000 0.000000000000 -0.451604247000 
node 17 coords 3 6.486458780000 0.000000000000 -0.419346780000 
node 18 coords 3 5.987500670000 0.000000000000 -0.387089342000 
node 19 coords 3 9.918989180000 0.000000000000 -1.270299790000 
node 20 coords 3 9.423039440000 0.000000000000 -1.206784840000 
node 21 coords 3 8.927089690000 0.000000000000 -1.143269900000 
node 22 coords 3 8.431140900000 0.000000000000 -1.079754830000 
node 23 coords 3 7.935191150000 0.000000000000 -1.016239880000 
node 24 coords 3 7.439241410000 0.000000000000 -0.952724874000 
node 25 coords 3 6.943292140000 0.000000000000 -0.889209867000 
node 26 coords 3 6.447342870000 0.000000000000 -0.825694919000 
node 27 coords 3 5.951393130000 0.000000000000 -0.762179911000 
node 28 coords 3 9.819685940000 0.000000000000 -1.890440230000 
node 29 coords 3 9.328701970000 0.000000000000 -1.795918230000 
# ... 880 like lines cut
node 910 coords 3 9.749985690000 0.000000000000 -0.017016951000 load 1 3
node 911 coords 3 9.490097050000 0.000000000000 -0.314736068000 
node 912 coords 3 9.740097050000 0.000000000000 -0.315172374000 
node 913 coords 3 9.729688640000 0.000000000000 -0.629020214000 
node 914 coords 3 9.994504930000 0.000000000000 -0.331464589000 
node 915 coords 3 9.249985690000 0.000000000000 -0.016144288700 load 1 3
node 916 coords 3 8.990618710000 0.000000000000 -0.298170984000 
node 917 coords 3 9.240617750000 0.000000000000 -0.298607320000 
node 918 coords 3 9.230730060000 0.000000000000 -0.596762776000 
node 919 coords 3 8.749986650000 0.000000000000 -0.015271623600 load 1 3
node 920 coords 3 8.491139410000 0.000000000000 -0.281605929000 
node 921 coords 3 8.741139410000 0.000000000000 -0.282042265000 
node 922 coords 3 8.731771470000 0.000000000000 -0.564505279000 
node 923 coords 3 8.249987600000 0.000000000000 -0.014398958500 load 1 3
node 924 coords 3 7.991661070000 0.000000000000 -0.265040874000 
node 925 coords 3 8.241660120000 0.000000000000 -0.265477210000 
node 926 coords 3 8.232812880000 0.000000000000 -0.532247841000 
node 927 coords 3 7.749988080000 0.000000000000 -0.013526294400 load 1 3
node 928 coords 3 7.492181780000 0.000000000000 -0.248475820000 
node 929 coords 3 7.742181780000 0.000000000000 -0.248912156000 
node 930 coords 3 7.733854770000 0.000000000000 -0.499990404000 
node 931 coords 3 7.249989030000 0.000000000000 -0.012653631200 load 1 3
node 932 coords 3 6.992703440000 0.000000000000 -0.231910765000 
node 933 coords 3 7.242702960000 0.000000000000 -0.232347101000 
node 934 coords 3 7.234896660000 0.000000000000 -0.467732966000 
node 935 coords 3 6.749989510000 0.000000000000 -0.011780966100 load 1 3
node 936 coords 3 6.493224140000 0.000000000000 -0.215345711000 
node 937 coords 3 6.743224140000 0.000000000000 -0.215782046000 
node 938 coords 3 6.735938070000 0.000000000000 -0.435475528000 
node 939 coords 3 6.249990460000 0.000000000000 -0.010908301900 load 1 3
node 940 coords 3 5.996703150000 0.000000000000 -0.198878735000 
node 941 coords 3 6.243745330000 0.000000000000 -0.199216992000 
node 942 coords 3 6.236979480000 0.000000000000 -0.403218061000 
node 943 coords 3 9.451623920000 0.000000000000 -0.909838200000 
node 944 coords 3 9.701103210000 0.000000000000 -0.925966859000 
node 945 coords 3 9.671014790000 0.000000000000 -1.238542320000 
node 946 coords 3 9.953987120000 0.000000000000 -0.958196878000 
node 947 coords 3 8.954170230000 0.000000000000 -0.861951947000 
node 948 coords 3 9.203649520000 0.000000000000 -0.878080726000 
node 949 coords 3 9.175064090000 0.000000000000 -1.175027370000 
node 950 coords 3 8.456716540000 0.000000000000 -0.814065695000 
node 951 coords 3 8.706195830000 0.000000000000 -0.830194414000 
node 952 coords 3 8.679115300000 0.000000000000 -1.111512420000 
node 953 coords 3 7.959262850000 0.000000000000 -0.766179502000 
node 954 coords 3 8.208742140000 0.000000000000 -0.782308221000 
node 955 coords 3 8.183166500000 0.000000000000 -1.047997360000 
node 956 coords 3 7.461808200000 0.000000000000 -0.718293309000 
node 957 coords 3 7.711287500000 0.000000000000 -0.734421968000 
node 958 coords 3 7.687216280000 0.000000000000 -0.984482408000 
node 959 coords 3 6.964354520000 0.000000000000 -0.670407057000 
# ... 2458 like lines cut
tr2shell7 1 nodes 6 1 2 11 910 911 912 mat 1 crossSect 1 nlgeo 1
tr2shell7 2 nodes 6 11 10 1 913 914 912 mat 1 crossSect 1 nlgeo 1
tr2shell7 3 nodes 6 2 3 12 915 916 917 mat 1 crossSect 1 nlgeo 1
tr2shell7 4 nodes 6 12 11 2 918 911 917 mat 1 crossSect 1 nlgeo 1
tr2shell7 5 nodes 6 3 4 13 919 920 921 mat 1 crossSect 1 nlgeo 1
tr2shell7 6 nodes 6 13 12 3 922 916 921 mat 1 crossSect 1 nlgeo 1
tr2shell7 7 nodes 6 4 5 14 923 924 925 mat 1 crossSect 1 nlgeo 1
tr2shell7 8 nodes 6 14 13 4 926 920 925 mat 1 crossSect 1 nlgeo 1
tr2shell7 9 nodes 6 5 6 15 927 928 929 mat 1 crossSect 1 nlgeo 1
tr2shell7 10 nodes 6 15 14 5 930 924 929 mat 1 crossSect 1 nlgeo 1
tr2shell7 11 nodes 6 6 7 16 931 932 933 mat 1 crossSect 1 nlgeo 1
tr2shell7 12 nodes 6 16 15 6 934 928 933 mat 1 crossSect 1 nlgeo 1
tr2shell7 13 nodes 6 7 8 17 935 936 937 mat 1 crossSect 1 nlgeo 1
tr2shell7 14 nodes 6 17 16 7 938 932 937 mat 1 crossSect 1 nlgeo 1
tr2shell7 15 nodes 6 8 9 18 939 940 941 mat 1 crossSect 1 nlgeo 1
tr2shell7 16 nodes 6 18 17 8 942 936 941 mat 1 crossSect 1 nlgeo 1
tr2shell7 17 nodes 6 10 11 20 913 943 944 mat 1 crossSect 1 nlgeo 1
tr2shell7 18 nodes 6 20 19 10 945 946 944 mat 1 crossSect 1 nlgeo 1
tr2shell7 19 nodes 6 11 12 21 918 947 948 mat 1 crossSect 1 nlgeo 1
tr2shell7 20 nodes 6 21 20 11 949 943 948 mat 1 crossSect 1 nlgeo 1
# ... 1580 like lines cut
layeredCS 1 nlayers 1 layermaterials 1 1 thicks 1 0.03 nintegrationpoints 4
IsoLE 1 d 1. E 2.1e10. n 0.0 tAlpha 1.0
BoundaryCondition  1 loadTimeFunction 1 prescribedvalue 0.0 set 1 dofs 6 0 0 0 0 0 0
# 8 elements on the edge. 
NodalLoad 2 loadTimeFunction 1 components 7 0 83.333 0 0 0 0 0 
NodalLoad 3 loadTimeFunction 1 components 7 0 333.333 0 0 0 0 0 
NodalLoad 4 loadTimeFunction 1 components 7 0 166.66 0 0 0 0 0
PiecewiseLinFunction 1 npoints 2 t 2 0 1 f(t) 2 0 1.0
# Clamped
Set 1 nodes 17 901 902 903 904 905 906 907 908 909 3395 3399 3402 3405 3408 3411 3414 3417
# Edge_nodes
Set 2 nodes 2 1 9
# Double_nodes
Set 3 nodes 7 2 3 4 5 6 7 8
# Mid_nodes
Set 4 nodes 8 910 915 919 923 927 931 935 939
