circ_plate_06.out
Circular plate shell element test
NonLinearStatic nsteps 101 deltaT 0.01 rtolf 5.0e-5 rtold -1.0 maxiter 25 controlmode 1 nmodules 1 lstype 3 smtype 7 manrmsteps 1 initialguess 1
vtkxml tstep_step 10 dofman_all element_all primvars 2 1 15 vars 2 1 4
domain 3dDirShell 
OutputManager tstep_step 10 dofman_all element_all
ndofman 1037 nelem 492 ncrosssect 1 nmat 1 nbc 2 nic 0 nltf 1 nset 1
node 1 coords 3 -5.000000000000 0.000000000000 0.000000000000 
node 2 coords 3 0.000000000000 0.000000000000 0.000000000000 
node 3 coords 3 0.000000000000 0.000000000000 5.000000000000 
node 4 coords 3 5.000000000000 0.000000000000 0.000000000000 
node 5 coords 3 0.000000000000 0.000000000000 -5.000000000000 
node 6 coords 3 -0.602683425000 0.000000000000 4.963544370000 
node 7 coords 3 -1.196578260000 0.000000000000 4.854709150000 
node 8 coords 3 -1.773024440000 0.000000000000 4.675081250000 
node 9 coords 3 -2.323615790000 0.000000000000 4.427279950000 
node 10 coords 3 -2.840323690000 0.000000000000 4.114919190000 
node 11 coords 3 -3.315613270000 0.000000000000 3.742553710000 
node 12 coords 3 -3.742553710000 0.000000000000 3.315613270000 
node 13 coords 3 -4.114919190000 0.000000000000 2.840323690000 
node 14 coords 3 -4.427279950000 0.000000000000 2.323615790000 
node 15 coords 3 -4.675081250000 0.000000000000 1.773024440000 
node 16 coords 3 -4.854709150000 0.000000000000 1.196578260000 
node 17 coords 3 -4.963544370000 0.000000000000 0.602683425000 
node 18 coords 3 -4.285714150000 0.000000000000 0.000000000000 
node 19 coords 3 -3.571428540000 0.000000000000 0.000000000000 
node 20 coords 3 -2.857142930000 0.000000000000 0.000000000000 
# ... 1017 like lines cut
tr2shell7 1 nodes 6 11 12 88 274 275 276 mat 1 crossSect 1 boundaryLoads 2 2 0
tr2shell7 2 nodes 6 88 82 11 277 278 276 mat 1 crossSect 1 boundaryLoads 2 2 0
tr2shell7 3 nodes 6 12 13 87 279 280 281 mat 1 crossSect 1 boundaryLoads 2 2 0
tr2shell7 4 nodes 6 87 88 12 282 275 281 mat 1 crossSect 1 boundaryLoads 2 2 0
tr2shell7 5 nodes 6 13 14 86 283 284 285 mat 1 crossSect 1 boundaryLoads 2 2 0
tr2shell7 6 nodes 6 86 87 13 286 280 285 mat 1 crossSect 1 boundaryLoads 2 2 0
tr2shell7 7 nodes 6 14 15 85 287 288 289 mat 1 crossSect 1 boundaryLoads 2 2 0
tr2shell7 8 nodes 6 85 86 14 290 284 289 mat 1 crossSect 1 boundaryLoads 2 2 0
tr2shell7 9 nodes 6 15 16 84 291 292 293 mat 1 crossSect 1 boundaryLoads 2 2 0
tr2shell7 10 nodes 6 84 85 15 294 288 293 mat 1 crossSect 1 boundaryLoads 2 2 0
tr2shell7 11 nodes 6 16 17 83 295 296 297 mat 1 crossSect 1 boundaryLoads 2 2 0
tr2shell7 12 nodes 6 83 84 16 298 292 297 mat 1 crossSect 1 boundaryLoads 2 2 0
tr2shell7 13 nodes 6 17 1 18 299 300 301 mat 1 crossSect 1 boundaryLoads 2 2 0
tr2shell7 14 nodes 6 18 83 17 302 296 301 mat 1 crossSect 1 boundaryLoads 2 2 0
tr2shell7 15 nodes 6 18 19 83 303 304 302 mat 1 crossSect 1 boundaryLoads 2 2 0
tr2shell7 16 nodes 6 19 94 83 305 306 304 mat 1 crossSect 1 boundaryLoads 2 2 0
tr2shell7 17 nodes 6 19 20 94 307 308 305 mat 1 crossSect 1 boundaryLoads 2 2 0
tr2shell7 18 nodes 6 20 95 94 309 310 308 mat 1 crossSect 1 boundaryLoads 2 2 0
tr2shell7 19 nodes 6 20 21 95 311 312 309 mat 1 crossSect 1 boundaryLoads 2 2 0
tr2shell7 20 nodes 6 21 96 95 313 314 312 mat 1 crossSect 1 boundaryLoads 2 2 0
# ... 472 like lines cut
layeredCS 1 nlayers 1 layermaterials 1 1 thicks 1 0.01 nintegrationpoints 4
IsoLE 1 d 1. E 10920e3. n 0.0 tAlpha 1.
BoundaryCondition  1 loadTimeFunction 1 prescribedvalue 0.0 set 1 dofs 6 1 2 3 4 5 6
ConstantPressureLoad 2 loadTimeFunction 1 loadtype 3 ndofs 1  Components 1 1.0
PiecewiseLinFunction 1 npoints 2 t 2 0 1 f(t) 2 0 1.0
# edge_nodes
Set 1 nodes 104 1 3 4 5 6 7 8 9 10 11 12 13 14 15 16 17 31 32 33 34 35 36 37 38 39 40 41 42 58 59 60 61 62 63 64 65 66 67 68 69 70 71 72 73 74 75 76 77 78 79 80 81 274 279 283 287 291 295 299 436 439 442 445 448 452 453 458 462 466 470 474 478 633 639 645 651 657 662 797 800 803 806 809 812 815 818 821 824 827 830 833 965 971 977 983 989 995 1001 1004 1008 1012 1016 1020 1024
