circ_plate_04.out
Circular plate shell element test
NonLinearStatic nsteps 101 deltaT 0.01 rtolf 5.0e-5 rtold -1.0 maxiter 25 controlmode 1 nmodules 1 lstype 3 smtype 7 manrmsteps 1 initialguess 1
vtkxml tstep_step 10 dofman_all element_all primvars 2 1 15 vars 2 1 4
domain 3dDirShell 
OutputManager tstep_step 10 dofman_all element_all
ndofman 2641 nelem 1280 ncrosssect 1 nmat 1 nbc 2 nic 0 nltf 1 nset 1
node 1 coords 3 -5.000000000000 0.000000000000 0.000000000000 
node 2 coords 3 0.000000000000 0.000000000000 0.000000000000 
node 3 coords 3 0.000000000000 0.000000000000 5.000000000000 
node 4 coords 3 5.000000000000 0.000000000000 0.000000000000 
node 5 coords 3 0.000000000000 0.000000000000 -5.000000000000 
node 6 coords 3 -0.392295480000 0.000000000000 4.984586720000 
node 7 coords 3 -0.782172322000 0.000000000000 4.938441750000 
node 8 coords 3 -1.167226790000 0.000000000000 4.861849780000 
node 9 coords 3 -1.545084950000 0.000000000000 4.755282400000 
node 10 coords 3 -1.913417220000 0.000000000000 4.619397640000 
node 11 coords 3 -2.269952540000 0.000000000000 4.455032830000 
node 12 coords 3 -2.612492800000 0.000000000000 4.263200760000 
node 13 coords 3 -2.938926220000 0.000000000000 4.045084950000 
node 14 coords 3 -3.247240300000 0.000000000000 3.802029850000 
node 15 coords 3 -3.535533910000 0.000000000000 3.535533910000 
node 16 coords 3 -3.802029850000 0.000000000000 3.247240300000 
node 17 coords 3 -4.045084950000 0.000000000000 2.938926220000 
node 18 coords 3 -4.263200760000 0.000000000000 2.612492800000 
node 19 coords 3 -4.455032830000 0.000000000000 2.269952540000 
node 20 coords 3 -4.619397640000 0.000000000000 1.913417220000 
# ... 2621 like lines cut
tr2shell7 1 nodes 6 15 16 151 682 683 684 mat 1 crossSect 1 boundaryLoads 2 2 0
tr2shell7 2 nodes 6 151 141 15 685 686 684 mat 1 crossSect 1 boundaryLoads 2 2 0
tr2shell7 3 nodes 6 16 17 152 687 688 689 mat 1 crossSect 1 boundaryLoads 2 2 0
tr2shell7 4 nodes 6 152 151 16 690 683 689 mat 1 crossSect 1 boundaryLoads 2 2 0
tr2shell7 5 nodes 6 17 18 153 691 692 693 mat 1 crossSect 1 boundaryLoads 2 2 0
tr2shell7 6 nodes 6 153 152 17 694 688 693 mat 1 crossSect 1 boundaryLoads 2 2 0
tr2shell7 7 nodes 6 18 19 154 695 696 697 mat 1 crossSect 1 boundaryLoads 2 2 0
tr2shell7 8 nodes 6 154 153 18 698 692 697 mat 1 crossSect 1 boundaryLoads 2 2 0
tr2shell7 9 nodes 6 19 20 155 699 700 701 mat 1 crossSect 1 boundaryLoads 2 2 0
tr2shell7 10 nodes 6 155 154 19 702 696 701 mat 1 crossSect 1 boundaryLoads 2 2 0
tr2shell7 11 nodes 6 20 21 156 703 704 705 mat 1 crossSect 1 boundaryLoads 2 2 0
tr2shell7 12 nodes 6 156 155 20 706 700 705 mat 1 crossSect 1 boundaryLoads 2 2 0
tr2shell7 13 nodes 6 21 22 157 707 708 709 mat 1 crossSect 1 boundaryLoads 2 2 0
tr2shell7 14 nodes 6 157 156 21 710 704 709 mat 1 crossSect 1 boundaryLoads 2 2 0
tr2shell7 15 nodes 6 22 23 158 711 712 713 mat 1 crossSect 1 boundaryLoads 2 2 0
tr2shell7 16 nodes 6 158 157 22 714 708 713 mat 1 crossSect 1 boundaryLoads 2 2 0
tr2shell7 17 nodes 6 23 24 159 715 716 717 mat 1 crossSect 1 boundaryLoads 2 2 0
tr2shell7 18 nodes 6 159 158 23 718 712 717 mat 1 crossSect 1 boundaryLoads 2 2 0
tr2shell7 19 nodes 6 24 1 25 719 720 721 mat 1 crossSect 1 boundaryLoads 2 2 0
tr2shell7 20 nodes 6 25 159 24 722 716 721 mat 1 crossSect 1 boundaryLoads 2 2 0
# ... 1260 like lines cut
layeredCS 1 nlayers 1 layermaterials 1 1 thicks 1 0.01 nintegrationpoints 4
IsoLE 1 d 1. E 10920e3. n 0.0 tAlpha 1.
BoundaryCondition  1 loadTimeFunction 1 prescribedvalue 0.0 set 1 dofs 6 1 2 3 4 5 6
ConstantPressureLoad 2 loadTimeFunction 1 loadtype 3 ndofs 1  Components 1 1.0
PiecewiseLinFunction 1 npoints 2 t 2 0 1 f(t) 2 0 1.0
Set 1 nodes 160 1 3 4 5 6 7 8 9 10 11 12 13 14 15 16 17 18 19 20 21 22 23 24 49 50 51 52 53 54 55 56 57 58 59 60 61 62 63 64 65 66 67 92 93 94 95 96 97 98 99 100 101 102 103 104 105 106 107 108 109 110 111 112 113 114 115 116 117 118 119 120 121 122 123 124 125 126 127 128 129 682 687 691 695 699 703 707 711 715 719 1104 1113 1122 1131 1140 1149 1158 1167 1176 1183 1185 1190 1194 1198 1202 1206 12
