circ_plate_08.out
Circular plate shell element test
NonLinearStatic nsteps 101 deltaT 0.01 rtolf 5.0e-5 rtold -1.0 maxiter 25 controlmode 1 nmodules 1 lstype 3 smtype 7 manrmsteps 1 initialguess 1
vtkxml tstep_step 10 dofman_all element_all primvars 2 1 15 vars 2 1 4
domain 3dDirShell 
OutputManager tstep_step 10 dofman_all element_all
ndofman 601 nelem 280 ncrosssect 1 nmat 1 nbc 2 nic 0 nltf 1 nset 1
node 1 coords 3 -5.000000000000 0.000000000000 0.000000000000 
node 2 coords 3 0.000000000000 0.000000000000 0.000000000000 
node 3 coords 3 0.000000000000 0.000000000000 5.000000000000 
node 4 coords 3 5.000000000000 0.000000000000 0.000000000000 
node 5 coords 3 0.000000000000 0.000000000000 -5.000000000000 
node 6 coords 3 -0.782172322000 0.000000000000 4.938441750000 
node 7 coords 3 -1.545084950000 0.000000000000 4.755282400000 
node 8 coords 3 -2.269952540000 0.000000000000 4.455032830000 
node 9 coords 3 -2.938926220000 0.000000000000 4.045084950000 
node 10 coords 3 -3.535533910000 0.000000000000 3.535533910000 
node 11 coords 3 -4.045084950000 0.000000000000 2.938926220000 
node 12 coords 3 -4.455032830000 0.000000000000 2.269952540000 
node 13 coords 3 -4.755282400000 0.000000000000 1.545084950000 
node 14 coords 3 -4.938441750000 0.000000000000 0.782172322000 
node 15 coords 3 -4.166666510000 0.000000000000 0.000000000000 
node 16 coords 3 -3.333333250000 0.000000000000 0.000000000000 
node 17 coords 3 -2.500000000000 0.000000000000 0.000000000000 
node 18 coords 3 -1.666666630000 0.000000000000 0.000000000000 
node 19 coords 3 -0.833333313000 0.000000000000 0.000000000000 
node 20 coords 3 0.000000000000 0.000000000000 0.833333313000 
# ... 581 like lines cut
tr2shell7 1 nodes 6 10 11 62 162 163 164 mat 1 crossSect 1 boundaryLoads 2 2 0
tr2shell7 2 nodes 6 11 66 62 165 166 163 mat 1 crossSect 1 boundaryLoads 2 2 0
tr2shell7 3 nodes 6 11 12 65 167 168 169 mat 1 crossSect 1 boundaryLoads 2 2 0
tr2shell7 4 nodes 6 65 66 11 170 165 169 mat 1 crossSect 1 boundaryLoads 2 2 0
tr2shell7 5 nodes 6 12 13 64 171 172 173 mat 1 crossSect 1 boundaryLoads 2 2 0
tr2shell7 6 nodes 6 64 65 12 174 168 173 mat 1 crossSect 1 boundaryLoads 2 2 0
tr2shell7 7 nodes 6 13 14 63 175 176 177 mat 1 crossSect 1 boundaryLoads 2 2 0
tr2shell7 8 nodes 6 63 64 13 178 172 177 mat 1 crossSect 1 boundaryLoads 2 2 0
tr2shell7 9 nodes 6 14 1 15 179 180 181 mat 1 crossSect 1 boundaryLoads 2 2 0
tr2shell7 10 nodes 6 15 63 14 182 176 181 mat 1 crossSect 1 boundaryLoads 2 2 0
tr2shell7 11 nodes 6 15 16 63 183 184 182 mat 1 crossSect 1 boundaryLoads 2 2 0
tr2shell7 12 nodes 6 16 71 63 185 186 184 mat 1 crossSect 1 boundaryLoads 2 2 0
tr2shell7 13 nodes 6 16 17 71 187 188 185 mat 1 crossSect 1 boundaryLoads 2 2 0
tr2shell7 14 nodes 6 17 72 71 189 190 188 mat 1 crossSect 1 boundaryLoads 2 2 0
tr2shell7 15 nodes 6 17 18 72 191 192 189 mat 1 crossSect 1 boundaryLoads 2 2 0
tr2shell7 16 nodes 6 18 73 72 193 194 192 mat 1 crossSect 1 boundaryLoads 2 2 0
tr2shell7 17 nodes 6 18 19 73 195 196 193 mat 1 crossSect 1 boundaryLoads 2 2 0
tr2shell7 18 nodes 6 19 74 73 197 198 196 mat 1 crossSect 1 boundaryLoads 2 2 0
tr2shell7 19 nodes 6 19 2 74 199 200 197 mat 1 crossSect 1 boundaryLoads 2 2 0
tr2shell7 20 nodes 6 2 20 74 201 202 200 mat 1 crossSect 1 boundaryLoads 2 2 0
# ... 260 like lines cut
layeredCS 1 nlayers 1 layermaterials 1 1 thicks 1 0.01 nintegrationpoints 4
IsoLE 1 d 1. E 10920e3. n 0.0 tAlpha 1.
BoundaryCondition  1 loadTimeFunction 1 prescribedvalue 0.0 set 1 dofs 6 1 2 3 4 5 6
ConstantPressureLoad 2 loadTimeFunction 1 loadtype 3 ndofs 1  Components 1 1.0
PiecewiseLinFunction 1 npoints 2 t 2 0 1 f(t) 2 0 1.0
# edge_nodes
Set 1 nodes 80 1 3 4 5 6 7 8 9 10 11 12 13 14 25 26 27 28 29 30 31 32 33 44 45 46 47 48 49 50 51 52 53 54 55 56 57 58 59 60 61 162 167 171 175 179 264 267 270 273 277 278 283 287 291 295 374 377 380 383 387 468 471 474 477 481 483 486 489 492 495 573 576 579 582 586 588 591 594 597 600
