half_cyl_100.out
Pinched semicylindrical shell element test
NonLinearStatic nsteps 11 deltaT 0.1 rtolf 5.0e-5 rtold -1.0 maxiter 25 refloadmode 1 controlmode 1 nmodules 1 lstype 4 smtype 10 manrmsteps 1 initialguess 1
vtkxml tstep_step 1 dofman_all element_all primvars 2 1 15 vars 2 1 4
domain 3dDirShell 
<<<<<<< HEAD
OutputManager tstep_step 10 dofman_all element_all
ndofman 693 nelem 320 ncrosssect 1 nmat 1 nbc 3 nic 0 nltf 1 nset 3
node 1 coords 3 0.000000000000 50.000000000000 0.000000000000 
node 2 coords 3 0.000000000000 50.000000000000 100.000000000000 NodalLoad 1 3
node 3 coords 3 -50.000000000000 0.000000000000 100.000000000000 
node 4 coords 3 -50.000000000000 0.000000000000 0.000000000000 
node 5 coords 3 50.000000000000 0.000000000000 0.000000000000 
node 6 coords 3 50.000000000000 0.000000000000 100.000000000000 
node 7 coords 3 0.000000000000 50.000000000000 10.000000000000 
node 8 coords 3 0.000000000000 50.000000000000 20.000000000000 
node 9 coords 3 0.000000000000 50.000000000000 30.000000000000 
node 10 coords 3 0.000000000000 50.000000000000 40.000000000000 
node 11 coords 3 0.000000000000 50.000000000000 50.000000000000 
node 12 coords 3 0.000000000000 50.000000000000 60.000000000000 
node 13 coords 3 0.000000000000 50.000000000000 70.000000000000 
node 14 coords 3 0.000000000000 50.000000000000 80.000000000000 
node 15 coords 3 0.000000000000 50.000000000000 90.000000000000 
node 16 coords 3 -9.754515650000 49.039264700000 100.000000000000 
node 17 coords 3 -19.134172400000 46.193977400000 100.000000000000 
node 18 coords 3 -27.778511000000 41.573482500000 100.000000000000 
node 19 coords 3 -35.355339100000 35.355339100000 100.000000000000 
node 20 coords 3 -41.573482500000 27.778511000000 100.000000000000 
node 21 coords 3 -46.193977400000 19.134172400000 100.000000000000 
node 22 coords 3 -49.039264700000 9.754515650000 100.000000000000 
# ... 671 like lines cut
tr2shell7 1 nodes 6 1 7 38 188 189 190 mat 1 crossSect 1 nlgeo 1
tr2shell7 2 nodes 6 7 62 38 191 192 189 mat 1 crossSect 1 nlgeo 1
tr2shell7 3 nodes 6 7 8 62 193 194 191 mat 1 crossSect 1 nlgeo 1
tr2shell7 4 nodes 6 8 63 62 195 196 194 mat 1 crossSect 1 nlgeo 1
tr2shell7 5 nodes 6 8 9 63 197 198 195 mat 1 crossSect 1 nlgeo 1
tr2shell7 6 nodes 6 9 64 63 199 200 198 mat 1 crossSect 1 nlgeo 1
tr2shell7 7 nodes 6 9 10 64 201 202 199 mat 1 crossSect 1 nlgeo 1
tr2shell7 8 nodes 6 10 65 64 203 204 202 mat 1 crossSect 1 nlgeo 1
tr2shell7 9 nodes 6 10 11 65 205 206 203 mat 1 crossSect 1 nlgeo 1
tr2shell7 10 nodes 6 11 66 65 207 208 206 mat 1 crossSect 1 nlgeo 1
tr2shell7 11 nodes 6 11 12 66 209 210 207 mat 1 crossSect 1 nlgeo 1
tr2shell7 12 nodes 6 12 67 66 211 212 210 mat 1 crossSect 1 nlgeo 1
tr2shell7 13 nodes 6 12 13 67 213 214 211 mat 1 crossSect 1 nlgeo 1
tr2shell7 14 nodes 6 13 68 67 215 216 214 mat 1 crossSect 1 nlgeo 1
tr2shell7 15 nodes 6 13 14 68 217 218 215 mat 1 crossSect 1 nlgeo 1
tr2shell7 16 nodes 6 14 69 68 219 220 218 mat 1 crossSect 1 nlgeo 1
tr2shell7 17 nodes 6 14 15 69 221 222 219 mat 1 crossSect 1 nlgeo 1
tr2shell7 18 nodes 6 15 70 69 223 224 222 mat 1 crossSect 1 nlgeo 1
tr2shell7 19 nodes 6 15 2 70 225 226 223 mat 1 crossSect 1 nlgeo 1
tr2shell7 20 nodes 6 2 16 70 227 228 226 mat 1 crossSect 1 nlgeo 1
# ... 300 like lines cut
layeredCS 1 nlayers 1 layermaterials 1 1 thicks 1 1.0 nintegrationpoints 4
=======
OutputManager tstep_step 1 dofman_all element_all
ndofman 3965 nelem 1920 ncrosssect 1 nmat 1 nbc 3 nic 0 nltf 1 nset 3
node 1 coords 3 0.000000000000 101.599998000000 0.000000000000 
node 2 coords 3 0.000000000000 101.599998000000 304.799988000000 load 1 3
node 3 coords 3 -101.599998000000 0.000000000000 304.799988000000 
node 4 coords 3 -101.599998000000 0.000000000000 0.000000000000 
node 5 coords 3 101.599998000000 0.000000000000 0.000000000000 
node 6 coords 3 101.599998000000 0.000000000000 304.799988000000 
node 7 coords 3 0.000000000000 101.599998000000 10.159999800000 
node 8 coords 3 0.000000000000 101.599998000000 20.319999700000 
node 9 coords 3 0.000000000000 101.599998000000 30.479999500000 
node 10 coords 3 0.000000000000 101.599998000000 40.639999400000 
node 11 coords 3 0.000000000000 101.599998000000 50.799999200000 
node 12 coords 3 0.000000000000 101.599998000000 60.959999100000 
node 13 coords 3 0.000000000000 101.599998000000 71.120002700000 
node 14 coords 3 0.000000000000 101.599998000000 81.279998800000 
node 15 coords 3 0.000000000000 101.599998000000 91.440002400000 
node 16 coords 3 0.000000000000 101.599998000000 101.599998000000 
node 17 coords 3 0.000000000000 101.599998000000 111.760002000000 
node 18 coords 3 0.000000000000 101.599998000000 121.919998000000 
node 19 coords 3 0.000000000000 101.599998000000 132.080002000000 
node 20 coords 3 0.000000000000 101.599998000000 142.240005000000 
node 21 coords 3 0.000000000000 101.599998000000 152.399994000000 
node 22 coords 3 0.000000000000 101.599998000000 162.559998000000 
# ... 3943 like lines cut
tr2shell7 1 nodes 6 1 7 94 1024 1025 1026 mat 1 crossSect 1 nlgeo 1
tr2shell7 2 nodes 6 7 154 94 1027 1028 1025 mat 1 crossSect 1 nlgeo 1
tr2shell7 3 nodes 6 7 8 154 1029 1030 1027 mat 1 crossSect 1 nlgeo 1
tr2shell7 4 nodes 6 8 155 154 1031 1032 1030 mat 1 crossSect 1 nlgeo 1
tr2shell7 5 nodes 6 8 9 155 1033 1034 1031 mat 1 crossSect 1 nlgeo 1
tr2shell7 6 nodes 6 9 156 155 1035 1036 1034 mat 1 crossSect 1 nlgeo 1
tr2shell7 7 nodes 6 9 10 156 1037 1038 1035 mat 1 crossSect 1 nlgeo 1
tr2shell7 8 nodes 6 10 157 156 1039 1040 1038 mat 1 crossSect 1 nlgeo 1
tr2shell7 9 nodes 6 10 11 157 1041 1042 1039 mat 1 crossSect 1 nlgeo 1
tr2shell7 10 nodes 6 11 158 157 1043 1044 1042 mat 1 crossSect 1 nlgeo 1
tr2shell7 11 nodes 6 11 12 158 1045 1046 1043 mat 1 crossSect 1 nlgeo 1
tr2shell7 12 nodes 6 12 159 158 1047 1048 1046 mat 1 crossSect 1 nlgeo 1
tr2shell7 13 nodes 6 12 13 159 1049 1050 1047 mat 1 crossSect 1 nlgeo 1
tr2shell7 14 nodes 6 13 160 159 1051 1052 1050 mat 1 crossSect 1 nlgeo 1
tr2shell7 15 nodes 6 13 14 160 1053 1054 1051 mat 1 crossSect 1 nlgeo 1
tr2shell7 16 nodes 6 14 161 160 1055 1056 1054 mat 1 crossSect 1 nlgeo 1
tr2shell7 17 nodes 6 14 15 161 1057 1058 1055 mat 1 crossSect 1 nlgeo 1
tr2shell7 18 nodes 6 15 162 161 1059 1060 1058 mat 1 crossSect 1 nlgeo 1
tr2shell7 19 nodes 6 15 16 162 1061 1062 1059 mat 1 crossSect 1 nlgeo 1
tr2shell7 20 nodes 6 16 163 162 1063 1064 1062 mat 1 crossSect 1 nlgeo 1
# ... 1900 like lines cut
layeredCS 1 nlayers 1 layermaterials 1 1 thicks 1 3.0 nintegrationpoints 4
>>>>>>> bb8f1b4dd17b8f5207e745a4a2a2c4f89b2b92b6
IsoLE 1 d 1. E 2.0685e7. n 0.3 tAlpha 1.
BoundaryCondition 1 loadTimeFunction 1 prescribedvalue 0.0 dofs 6 1 2 3 4 5 6 set 1
BoundaryCondition 2 loadTimeFunction 1 prescribedvalue 0.0 dofs 2 2 6 set 2
NodalLoad 3 loadTimeFunction 1 Components 7 0. -2000. 0. 0. 0. 0. 0.
PiecewiseLinFunction 1 npoints 2 t 2 0 1 f(t) 2 0 1.0
# Clamped
Set 1 nodes 65 1 4 5 80 81 82 83 84 85 86 87 88 89 90 91 92 93 94 95 96 97 98 99 100 101 102 103 104 105 106 107 108 109 1026 1146 1237 1328 1419 1510 1601 1692 1783 1874 1965 2056 2147 2238 2329 2420 2598 2689 2780 2871 2962 3053 3144 3235 3326 3417 3508 3599 3690 3781 3872 3963
# Edges
Set 2 nodes 122 3 4 5 6 51 52 53 54 55 56 57 58 59 60 61 62 63 64 65 66 67 68 69 70 71 72 73 74 75 76 77 78 79 110 111 112 113 114 115 116 117 118 119 120 121 122 123 124 125 126 127 128 129 130 131 132 133 134 135 136 137 138 2422 2425 2428 2431 2434 2437 2440 2443 2446 2449 2452 2455 2458 2461 2464 2467 2470 2473 2476 2479 2482 2485 2488 2491 2494 2497 2500 2503 2506 2509 3877 3881 3884 3887 389
# P
Set 3 nodes 1 2
