half_cyl_75.out
Pinched semicylindrical shell element test
NonLinearStatic nsteps 1001 deltaT 0.001 rtolf 5.0e-5 rtold -1.0 maxiter 25 refloadmode 1 controlmode 1 nmodules 1 lstype 3 smtype 7 manrmsteps 1 initialguess 1
vtkxml tstep_step 10 dofman_all element_all primvars 2 1 15 vars 2 1 4
domain 3dDirShell 
OutputManager tstep_step 10 dofman_all element_all
ndofman 1107 nelem 520 ncrosssect 1 nmat 1 nbc 3 nic 0 nltf 1 nset 3
node 1 coords 3 0.000000000000 50.000000000000 0.000000000000 
node 2 coords 3 0.000000000000 50.000000000000 100.000000000000 NodalLoad 1 3
node 3 coords 3 -50.000000000000 0.000000000000 100.000000000000 
node 4 coords 3 -50.000000000000 0.000000000000 0.000000000000 
node 5 coords 3 50.000000000000 0.000000000000 0.000000000000 
node 6 coords 3 50.000000000000 0.000000000000 100.000000000000 
node 7 coords 3 0.000000000000 50.000000000000 7.692307470000 
node 8 coords 3 0.000000000000 50.000000000000 15.384614900000 
node 9 coords 3 0.000000000000 50.000000000000 23.076923400000 
node 10 coords 3 0.000000000000 50.000000000000 30.769229900000 
node 11 coords 3 0.000000000000 50.000000000000 38.461540200000 
node 12 coords 3 0.000000000000 50.000000000000 46.153846700000 
node 13 coords 3 0.000000000000 50.000000000000 53.846153300000 
node 14 coords 3 0.000000000000 50.000000000000 61.538459800000 
node 15 coords 3 0.000000000000 50.000000000000 69.230766300000 
node 16 coords 3 0.000000000000 50.000000000000 76.923080400000 
node 17 coords 3 0.000000000000 50.000000000000 84.615387000000 
node 18 coords 3 0.000000000000 50.000000000000 92.307693500000 
node 19 coords 3 -7.821723460000 49.384418500000 100.000000000000 
node 20 coords 3 -15.450849500000 47.552825900000 100.000000000000 
node 21 coords 3 -22.699525800000 44.550327300000 100.000000000000 
node 22 coords 3 -29.389263200000 40.450851400000 100.000000000000 
# ... 1085 like lines cut
tr2shell7 1 nodes 6 1 7 48 295 296 297 mat 1 crossSect 1 nlgeo 1
tr2shell7 2 nodes 6 7 79 48 298 299 296 mat 1 crossSect 1 nlgeo 1
tr2shell7 3 nodes 6 7 8 79 300 301 298 mat 1 crossSect 1 nlgeo 1
tr2shell7 4 nodes 6 8 80 79 302 303 301 mat 1 crossSect 1 nlgeo 1
tr2shell7 5 nodes 6 8 9 80 304 305 302 mat 1 crossSect 1 nlgeo 1
tr2shell7 6 nodes 6 9 81 80 306 307 305 mat 1 crossSect 1 nlgeo 1
tr2shell7 7 nodes 6 9 10 81 308 309 306 mat 1 crossSect 1 nlgeo 1
tr2shell7 8 nodes 6 10 82 81 310 311 309 mat 1 crossSect 1 nlgeo 1
tr2shell7 9 nodes 6 10 11 82 312 313 310 mat 1 crossSect 1 nlgeo 1
tr2shell7 10 nodes 6 11 83 82 314 315 313 mat 1 crossSect 1 nlgeo 1
tr2shell7 11 nodes 6 11 12 83 316 317 314 mat 1 crossSect 1 nlgeo 1
tr2shell7 12 nodes 6 12 84 83 318 319 317 mat 1 crossSect 1 nlgeo 1
tr2shell7 13 nodes 6 12 13 84 320 321 318 mat 1 crossSect 1 nlgeo 1
tr2shell7 14 nodes 6 13 85 84 322 323 321 mat 1 crossSect 1 nlgeo 1
tr2shell7 15 nodes 6 13 14 85 324 325 322 mat 1 crossSect 1 nlgeo 1
tr2shell7 16 nodes 6 14 86 85 326 327 325 mat 1 crossSect 1 nlgeo 1
tr2shell7 17 nodes 6 14 15 86 328 329 326 mat 1 crossSect 1 nlgeo 1
tr2shell7 18 nodes 6 15 87 86 330 331 329 mat 1 crossSect 1 nlgeo 1
tr2shell7 19 nodes 6 15 16 87 332 333 330 mat 1 crossSect 1 nlgeo 1
tr2shell7 20 nodes 6 16 88 87 334 335 333 mat 1 crossSect 1 nlgeo 1
# ... 500 like lines cut
layeredCS 1 nlayers 1 layermaterials 1 1 thicks 1 1.0 nintegrationpoints 4
IsoLE 1 d 1. E 2.0685e7. n 0.3 tAlpha 1.
BoundaryCondition 1 loadTimeFunction 1 prescribedvalue 0.0 dofs 6 1 2 3 4 5 6 set 1
BoundaryCondition 2 loadTimeFunction 1 prescribedvalue 0.0 dofs 4 1 2 3 6 set 2
NodalLoad 3 loadTimeFunction 1 Components 7 0. -2000. 0. 0. 0. 0. 0.0
PiecewiseLinFunction 1 npoints 2 t 2 0 1 f(t) 2 0 1.0
# Clamped
Set 1 nodes 41 1 4 5 40 41 42 43 44 45 46 47 48 49 50 51 52 53 54 55 56 57 297 349 389 429 469 509 549 589 629 669 745 785 825 865 905 945 985 1025 1065 1105
# Edges
Set 2 nodes 54 3 4 5 6 28 29 30 31 32 33 34 35 36 37 38 39 58 59 60 61 62 63 64 65 66 67 68 69 671 674 677 680 683 686 689 692 695 698 701 704 707 1070 1074 1077 1080 1083 1086 1089 1092 1095 1098 1101 1104 1107
# P
Set 3 nodes 1 2
