half_cyl_180.out
Pinched semicylindrical shell element test
NonLinearStatic nsteps 101 deltaT 0.01 rtolf 5.0e-5 rtold -1.0 maxiter 25 refloadmode 1 controlmode 1 nmodules 1 lstype 4 smtype 10 manrmsteps 1 initialguess 1
vtkxml tstep_step 1 dofman_all element_all primvars 2 1 15 vars 2 1 4
domain 3dDirShell 
OutputManager tstep_step 1 dofman_all element_all
ndofman 1295 nelem 612 ncrosssect 1 nmat 1 nbc 3 nic 0 nltf 1 nset 3
node 1 coords 3 0.000000000000 101.599998000000 0.000000000000 
node 2 coords 3 0.000000000000 101.599998000000 304.799988000000 load 1 3
node 3 coords 3 -101.599998000000 0.000000000000 304.799988000000 
node 4 coords 3 -101.599998000000 0.000000000000 0.000000000000 
node 5 coords 3 101.599998000000 0.000000000000 0.000000000000 
node 6 coords 3 101.599998000000 0.000000000000 304.799988000000 
node 7 coords 3 0.000000000000 101.599998000000 17.929410900000 
node 8 coords 3 0.000000000000 101.599998000000 35.858821900000 
node 9 coords 3 0.000000000000 101.599998000000 53.788234700000 
node 10 coords 3 0.000000000000 101.599998000000 71.717643700000 
node 11 coords 3 0.000000000000 101.599998000000 89.647056600000 
node 12 coords 3 0.000000000000 101.599998000000 107.576469000000 
node 13 coords 3 0.000000000000 101.599998000000 125.505882000000 
node 14 coords 3 0.000000000000 101.599998000000 143.435287000000 
node 15 coords 3 0.000000000000 101.599998000000 161.364700000000 
node 16 coords 3 0.000000000000 101.599998000000 179.294113000000 
node 17 coords 3 0.000000000000 101.599998000000 197.223526000000 
node 18 coords 3 0.000000000000 101.599998000000 215.152939000000 
node 19 coords 3 0.000000000000 101.599998000000 233.082352000000 
node 20 coords 3 0.000000000000 101.599998000000 251.011765000000 
node 21 coords 3 0.000000000000 101.599998000000 268.941162000000 
node 22 coords 3 0.000000000000 101.599998000000 286.870575000000 
# ... 1273 like lines cut
tr2shell7 1 nodes 6 1 7 54 343 344 345 mat 1 crossSect 1 nlgeo 1
tr2shell7 2 nodes 6 7 87 54 346 347 344 mat 1 crossSect 1 nlgeo 1
tr2shell7 3 nodes 6 7 8 87 348 349 346 mat 1 crossSect 1 nlgeo 1
tr2shell7 4 nodes 6 8 88 87 350 351 349 mat 1 crossSect 1 nlgeo 1
tr2shell7 5 nodes 6 8 9 88 352 353 350 mat 1 crossSect 1 nlgeo 1
tr2shell7 6 nodes 6 9 89 88 354 355 353 mat 1 crossSect 1 nlgeo 1
tr2shell7 7 nodes 6 9 10 89 356 357 354 mat 1 crossSect 1 nlgeo 1
tr2shell7 8 nodes 6 10 90 89 358 359 357 mat 1 crossSect 1 nlgeo 1
tr2shell7 9 nodes 6 10 11 90 360 361 358 mat 1 crossSect 1 nlgeo 1
tr2shell7 10 nodes 6 11 91 90 362 363 361 mat 1 crossSect 1 nlgeo 1
tr2shell7 11 nodes 6 11 12 91 364 365 362 mat 1 crossSect 1 nlgeo 1
tr2shell7 12 nodes 6 12 92 91 366 367 365 mat 1 crossSect 1 nlgeo 1
tr2shell7 13 nodes 6 12 13 92 368 369 366 mat 1 crossSect 1 nlgeo 1
tr2shell7 14 nodes 6 13 93 92 370 371 369 mat 1 crossSect 1 nlgeo 1
tr2shell7 15 nodes 6 13 14 93 372 373 370 mat 1 crossSect 1 nlgeo 1
tr2shell7 16 nodes 6 14 94 93 374 375 373 mat 1 crossSect 1 nlgeo 1
tr2shell7 17 nodes 6 14 15 94 376 377 374 mat 1 crossSect 1 nlgeo 1
tr2shell7 18 nodes 6 15 95 94 378 379 377 mat 1 crossSect 1 nlgeo 1
tr2shell7 19 nodes 6 15 16 95 380 381 378 mat 1 crossSect 1 nlgeo 1
tr2shell7 20 nodes 6 16 96 95 382 383 381 mat 1 crossSect 1 nlgeo 1
# ... 592 like lines cut
layeredCS 1 nlayers 1 layermaterials 1 1 thicks 1 3.0 nintegrationpoints 4
IsoLE 1 d 1. E 2.0685e7. n 0.3 tAlpha 1.
BoundaryCondition 1 loadTimeFunction 1 prescribedvalue 0.0 dofs 6 1 2 3 4 5 6 set 1
BoundaryCondition 2 loadTimeFunction 1 prescribedvalue 0.0 dofs 2 2 6 set 2
NodalLoad 3 loadTimeFunction 1 Components 7 0. -2000. 0. 0. 0. 0. 0.
PiecewiseLinFunction 1 npoints 2 t 2 0 1 f(t) 2 0 1.0
# Clamped
Set 1 nodes 37 1 4 5 47 48 49 50 51 52 53 54 55 56 57 58 59 60 61 62 345 413 465 517 569 621 673 725 777 877 929 981 1033 1085 1137 1189 1241 1293
# Edges
Set 2 nodes 70 3 4 5 6 31 32 33 34 35 36 37 38 39 40 41 42 43 44 45 46 63 64 65 66 67 68 69 70 71 72 73 74 75 76 77 78 779 782 785 788 791 794 797 800 803 806 809 812 815 818 821 824 827 1246 1250 1253 1256 1259 1262 1265 1268 1271 1274 1277 1280 1283 1286 1289 1292 1295
# P
Set 3 nodes 1 2
