half_cyl_100.out
Pinched semicylindrical shell element test
NonLinearStatic nsteps 11 deltaT 0.1 rtolf 5.0e-5 rtold -1.0 maxiter 25 controlmode 1 nmodules 1 lstype 3 smtype 7 manrmsteps 1 initialguess 1
vtkxml tstep_step 10 dofman_all element_all primvars 2 1 15 vars 2 1 4
domain 3dDirShell 
OutputManager tstep_step 10 dofman_all element_all
ndofman 693 nelem 320 ncrosssect 1 nmat 1 nbc 3 nic 0 nltf 1 nset 3
node 1 coords 3 0.000000000000 50.000000000000 0.000000000000 
node 2 coords 3 0.000000000000 50.000000000000 100.000000000000 NodalLoad 1 3
node 3 coords 3 -50.000000000000 0.000000000000 100.000000000000 
node 4 coords 3 -50.000000000000 0.000000000000 0.000000000000 
node 5 coords 3 50.000000000000 0.000000000000 0.000000000000 
node 6 coords 3 50.000000000000 0.000000000000 100.000000000000 
node 7 coords 3 0.000000000000 50.000000000000 10.000000000000 
node 8 coords 3 0.000000000000 50.000000000000 20.000000000000 
node 9 coords 3 0.000000000000 50.000000000000 30.000000000000 
node 10 coords 3 0.000000000000 50.000000000000 40.000000000000 
node 11 coords 3 0.000000000000 50.000000000000 50.000000000000 
node 12 coords 3 0.000000000000 50.000000000000 60.000000000000 
node 13 coords 3 0.000000000000 50.000000000000 70.000000000000 
node 14 coords 3 0.000000000000 50.000000000000 80.000000000000 
node 15 coords 3 0.000000000000 50.000000000000 90.000000000000 
node 16 coords 3 -9.754515650000 49.039264700000 100.000000000000 
node 17 coords 3 -19.134172400000 46.193977400000 100.000000000000 
node 18 coords 3 -27.778511000000 41.573482500000 100.000000000000 
node 19 coords 3 -35.355339100000 35.355339100000 100.000000000000 
node 20 coords 3 -41.573482500000 27.778511000000 100.000000000000 
node 21 coords 3 -46.193977400000 19.134172400000 100.000000000000 
node 22 coords 3 -49.039264700000 9.754515650000 100.000000000000 
# ... 671 like lines cut
tr2shell7 1 nodes 6 1 7 38 188 189 190 mat 1 crossSect 1 nlgeo 1
tr2shell7 2 nodes 6 7 62 38 191 192 189 mat 1 crossSect 1 nlgeo 1
tr2shell7 3 nodes 6 7 8 62 193 194 191 mat 1 crossSect 1 nlgeo 1
tr2shell7 4 nodes 6 8 63 62 195 196 194 mat 1 crossSect 1 nlgeo 1
tr2shell7 5 nodes 6 8 9 63 197 198 195 mat 1 crossSect 1 nlgeo 1
tr2shell7 6 nodes 6 9 64 63 199 200 198 mat 1 crossSect 1 nlgeo 1
tr2shell7 7 nodes 6 9 10 64 201 202 199 mat 1 crossSect 1 nlgeo 1
tr2shell7 8 nodes 6 10 65 64 203 204 202 mat 1 crossSect 1 nlgeo 1
tr2shell7 9 nodes 6 10 11 65 205 206 203 mat 1 crossSect 1 nlgeo 1
tr2shell7 10 nodes 6 11 66 65 207 208 206 mat 1 crossSect 1 nlgeo 1
tr2shell7 11 nodes 6 11 12 66 209 210 207 mat 1 crossSect 1 nlgeo 1
tr2shell7 12 nodes 6 12 67 66 211 212 210 mat 1 crossSect 1 nlgeo 1
tr2shell7 13 nodes 6 12 13 67 213 214 211 mat 1 crossSect 1 nlgeo 1
tr2shell7 14 nodes 6 13 68 67 215 216 214 mat 1 crossSect 1 nlgeo 1
tr2shell7 15 nodes 6 13 14 68 217 218 215 mat 1 crossSect 1 nlgeo 1
tr2shell7 16 nodes 6 14 69 68 219 220 218 mat 1 crossSect 1 nlgeo 1
tr2shell7 17 nodes 6 14 15 69 221 222 219 mat 1 crossSect 1 nlgeo 1
tr2shell7 18 nodes 6 15 70 69 223 224 222 mat 1 crossSect 1 nlgeo 1
tr2shell7 19 nodes 6 15 2 70 225 226 223 mat 1 crossSect 1 nlgeo 1
tr2shell7 20 nodes 6 2 16 70 227 228 226 mat 1 crossSect 1 nlgeo 1
# ... 300 like lines cut
layeredCS 1 nlayers 1 layermaterials 1 1 thicks 1 1.0 nintegrationpoints 4
IsoLE 1 d 1. E 2.0685e7. n 0.3 tAlpha 1.
BoundaryCondition 1 loadTimeFunction 1 prescribedvalue 0.0 dofs 6 1 2 3 4 5 6 set 1
BoundaryCondition 2 loadTimeFunction 1 prescribedvalue 0.0 dofs 4 1 2 3 6 set 2
NodalLoad 3 loadTimeFunction 1 Components 7 0. -2000. 0. 0. 0. 0. 0.0
PiecewiseLinFunction 1 npoints 2 t 2 0 1 f(t) 2 0 1.0
# Clamped
Set 1 nodes 33 1 4 5 32 33 34 35 36 37 38 39 40 41 42 43 44 45 190 230 261 292 323 354 385 416 474 505 536 567 598 629 660 691
# Edges
Set 2 nodes 42 3 4 5 6 23 24 25 26 27 28 29 30 31 46 47 48 49 50 51 52 53 54 418 421 424 427 430 433 436 439 442 445 665 669 672 675 678 681 684 687 690 693
# P
Set 3 nodes 1 2
