half_cyl_50.out
Pinched semicylindrical shell element test
NonLinearStatic nsteps 1001 deltaT 0.001 rtolf 5.0e-5 rtold -1.0 maxiter 25 controlmode 1 nmodules 1 lstype 3 smtype 7 manrmsteps 1 initialguess 1
vtkxml tstep_step 10 dofman_all element_all primvars 2 1 15 vars 2 1 4
domain 3dDirShell 
OutputManager tstep_step 10 dofman_all element_all
ndofman 2665 nelem 1280 ncrosssect 1 nmat 1 nbc 3 nic 0 nltf 1 nset 3
node 1 coords 3 0.000000000000 50.000000000000 0.000000000000 
node 2 coords 3 0.000000000000 50.000000000000 100.000000000000 NodalLoad 1 3
node 3 coords 3 -50.000000000000 0.000000000000 100.000000000000 
node 4 coords 3 -50.000000000000 0.000000000000 0.000000000000 
node 5 coords 3 50.000000000000 0.000000000000 0.000000000000 
node 6 coords 3 50.000000000000 0.000000000000 100.000000000000 
node 7 coords 3 0.000000000000 50.000000000000 5.000000000000 
node 8 coords 3 0.000000000000 50.000000000000 10.000000000000 
node 9 coords 3 0.000000000000 50.000000000000 15.000000000000 
node 10 coords 3 0.000000000000 50.000000000000 20.000000000000 
node 11 coords 3 0.000000000000 50.000000000000 25.000000000000 
node 12 coords 3 0.000000000000 50.000000000000 30.000000000000 
node 13 coords 3 0.000000000000 50.000000000000 35.000000000000 
node 14 coords 3 0.000000000000 50.000000000000 40.000000000000 
node 15 coords 3 0.000000000000 50.000000000000 45.000000000000 
node 16 coords 3 0.000000000000 50.000000000000 50.000000000000 
node 17 coords 3 0.000000000000 50.000000000000 55.000000000000 
node 18 coords 3 0.000000000000 50.000000000000 60.000000000000 
node 19 coords 3 0.000000000000 50.000000000000 65.000000000000 
node 20 coords 3 0.000000000000 50.000000000000 70.000000000000 
node 21 coords 3 0.000000000000 50.000000000000 75.000000000000 
node 22 coords 3 0.000000000000 50.000000000000 80.000000000000 
# ... 2643 like lines cut
tr2shell7 1 nodes 6 1 7 74 694 695 696 mat 1 crossSect 1 nlgeo 1
tr2shell7 2 nodes 6 7 124 74 697 698 695 mat 1 crossSect 1 nlgeo 1
tr2shell7 3 nodes 6 7 8 124 699 700 697 mat 1 crossSect 1 nlgeo 1
tr2shell7 4 nodes 6 8 125 124 701 702 700 mat 1 crossSect 1 nlgeo 1
tr2shell7 5 nodes 6 8 9 125 703 704 701 mat 1 crossSect 1 nlgeo 1
tr2shell7 6 nodes 6 9 126 125 705 706 704 mat 1 crossSect 1 nlgeo 1
tr2shell7 7 nodes 6 9 10 126 707 708 705 mat 1 crossSect 1 nlgeo 1
tr2shell7 8 nodes 6 10 127 126 709 710 708 mat 1 crossSect 1 nlgeo 1
tr2shell7 9 nodes 6 10 11 127 711 712 709 mat 1 crossSect 1 nlgeo 1
tr2shell7 10 nodes 6 11 128 127 713 714 712 mat 1 crossSect 1 nlgeo 1
tr2shell7 11 nodes 6 11 12 128 715 716 713 mat 1 crossSect 1 nlgeo 1
tr2shell7 12 nodes 6 12 129 128 717 718 716 mat 1 crossSect 1 nlgeo 1
tr2shell7 13 nodes 6 12 13 129 719 720 717 mat 1 crossSect 1 nlgeo 1
tr2shell7 14 nodes 6 13 130 129 721 722 720 mat 1 crossSect 1 nlgeo 1
tr2shell7 15 nodes 6 13 14 130 723 724 721 mat 1 crossSect 1 nlgeo 1
tr2shell7 16 nodes 6 14 131 130 725 726 724 mat 1 crossSect 1 nlgeo 1
tr2shell7 17 nodes 6 14 15 131 727 728 725 mat 1 crossSect 1 nlgeo 1
tr2shell7 18 nodes 6 15 132 131 729 730 728 mat 1 crossSect 1 nlgeo 1
tr2shell7 19 nodes 6 15 16 132 731 732 729 mat 1 crossSect 1 nlgeo 1
tr2shell7 20 nodes 6 16 133 132 733 734 732 mat 1 crossSect 1 nlgeo 1
# ... 1260 like lines cut
layeredCS 1 nlayers 1 layermaterials 1 1 thicks 1 1.0 nintegrationpoints 4
IsoLE 1 d 1. E 2.0685e7. n 0.3 tAlpha 1.
BoundaryCondition 1 loadTimeFunction 1 prescribedvalue 0.0 dofs 6 1 2 3 4 5 6 set 1
BoundaryCondition 2 loadTimeFunction 1 prescribedvalue 0.0 dofs 4 1 2 3 6 set 2
NodalLoad 3 loadTimeFunction 1 Components 7 0. -2000. 0. 0. 0. 0. 0.0
PiecewiseLinFunction 1 npoints 2 t 2 0 1 f(t) 2 0 1.0
# Clamped
Set 1 nodes 65 1 4 5 60 61 62 63 64 65 66 67 68 69 70 71 72 73 74 75 76 77 78 79 80 81 82 83 84 85 86 87 88 89 696 776 837 898 959 1020 1081 1142 1203 1264 1325 1386 1447 1508 1569 1630 1748 1809 1870 1931 1992 2053 2114 2175 2236 2297 2358 2419 2480 2541 2602 2663
# Edges
Set 2 nodes 82 3 4 5 6 41 42 43 44 45 46 47 48 49 50 51 52 53 54 55 56 57 58 59 90 91 92 93 94 95 96 97 98 99 100 101 102 103 104 105 106 107 108 1632 1635 1638 1641 1644 1647 1650 1653 1656 1659 1662 1665 1668 1671 1674 1677 1680 1683 1686 1689 2607 2611 2614 2617 2620 2623 2626 2629 2632 2635 2638 2641 2644 2647 2650 2653 2656 2659 2662 2665
# P
Set 3 nodes 1 2
