half_cyl_150_const.out
Pinched semicylindrical shell element test
NonLinearStatic nsteps 101 deltaT 0.01 rtolf 5.0e-5 rtold -1.0 maxiter 25 controlmode 1 nmodules 1 lstype 4 smtype 10 manrmsteps 1 initialguess 1
vtkxml tstep_step 1 dofman_all element_all primvars 2 1 15 vars 2 1 4
domain 3dDirShell 
OutputManager tstep_step 1 dofman_all element_all
ndofman 2025 nelem 968 ncrosssect 1 nmat 1 nbc 3 nic 0 nltf 1 nset 3
node 1 coords 3 0.000000000000 101.599998000000 0.000000000000 
node 2 coords 3 0.000000000000 101.599998000000 304.799988000000 load 1 3
node 3 coords 3 -101.599998000000 0.000000000000 304.799988000000 
node 4 coords 3 -101.599998000000 0.000000000000 0.000000000000 
node 5 coords 3 101.599998000000 0.000000000000 0.000000000000 
node 6 coords 3 101.599998000000 0.000000000000 304.799988000000 
node 7 coords 3 0.000000000000 101.599998000000 13.854545600000 
node 8 coords 3 0.000000000000 101.599998000000 27.709091200000 
node 9 coords 3 0.000000000000 101.599998000000 41.563636800000 
node 10 coords 3 0.000000000000 101.599998000000 55.418182400000 
node 11 coords 3 0.000000000000 101.599998000000 69.272728000000 
node 12 coords 3 0.000000000000 101.599998000000 83.127273600000 
node 13 coords 3 0.000000000000 101.599998000000 96.981819200000 
node 14 coords 3 0.000000000000 101.599998000000 110.836365000000 
node 15 coords 3 0.000000000000 101.599998000000 124.690910000000 
node 16 coords 3 0.000000000000 101.599998000000 138.545456000000 
node 17 coords 3 0.000000000000 101.599998000000 152.399994000000 
node 18 coords 3 0.000000000000 101.599998000000 166.254547000000 
node 19 coords 3 0.000000000000 101.599998000000 180.109085000000 
node 20 coords 3 0.000000000000 101.599998000000 193.963638000000 
node 21 coords 3 0.000000000000 101.599998000000 207.818176000000 
node 22 coords 3 0.000000000000 101.599998000000 221.672729000000 
# ... 2003 like lines cut
tr2shell7 1 nodes 6 1 7 68 530 531 532 mat 1 crossSect 1 nlgeo 1
tr2shell7 2 nodes 6 7 110 68 533 534 531 mat 1 crossSect 1 nlgeo 1
tr2shell7 3 nodes 6 7 8 110 535 536 533 mat 1 crossSect 1 nlgeo 1
tr2shell7 4 nodes 6 8 111 110 537 538 536 mat 1 crossSect 1 nlgeo 1
tr2shell7 5 nodes 6 8 9 111 539 540 537 mat 1 crossSect 1 nlgeo 1
tr2shell7 6 nodes 6 9 112 111 541 542 540 mat 1 crossSect 1 nlgeo 1
tr2shell7 7 nodes 6 9 10 112 543 544 541 mat 1 crossSect 1 nlgeo 1
tr2shell7 8 nodes 6 10 113 112 545 546 544 mat 1 crossSect 1 nlgeo 1
tr2shell7 9 nodes 6 10 11 113 547 548 545 mat 1 crossSect 1 nlgeo 1
tr2shell7 10 nodes 6 11 114 113 549 550 548 mat 1 crossSect 1 nlgeo 1
tr2shell7 11 nodes 6 11 12 114 551 552 549 mat 1 crossSect 1 nlgeo 1
tr2shell7 12 nodes 6 12 115 114 553 554 552 mat 1 crossSect 1 nlgeo 1
tr2shell7 13 nodes 6 12 13 115 555 556 553 mat 1 crossSect 1 nlgeo 1
tr2shell7 14 nodes 6 13 116 115 557 558 556 mat 1 crossSect 1 nlgeo 1
tr2shell7 15 nodes 6 13 14 116 559 560 557 mat 1 crossSect 1 nlgeo 1
tr2shell7 16 nodes 6 14 117 116 561 562 560 mat 1 crossSect 1 nlgeo 1
tr2shell7 17 nodes 6 14 15 117 563 564 561 mat 1 crossSect 1 nlgeo 1
tr2shell7 18 nodes 6 15 118 117 565 566 564 mat 1 crossSect 1 nlgeo 1
tr2shell7 19 nodes 6 15 16 118 567 568 565 mat 1 crossSect 1 nlgeo 1
tr2shell7 20 nodes 6 16 119 118 569 570 568 mat 1 crossSect 1 nlgeo 1
# ... 948 like lines cut
layeredCS 1 nlayers 1 layermaterials 1 1 thicks 1 3.0 nintegrationpoints 4
IsoLE 1 d 1. E 2068.5. n 0.3 tAlpha 1.
BoundaryCondition 1 loadTimeFunction 1 prescribedvalue 0.0 dofs 6 1 2 3 4 5 6 set 1
BoundaryCondition 2 loadTimeFunction 1 prescribedvalue 0.0 dofs 2 2 6 set 2
NodalLoad 3 loadTimeFunction 1 Components 7 0. -2000. 0. 0. 0. 0. 0.
PiecewiseLinFunction 1 npoints 2 t 2 0 1 f(t) 2 0 1.0
#Constantfunction 1 f(t) 1
# Clamped
Set 1 nodes 45 1 4 5 59 60 61 62 63 64 65 66 67 68 69 70 71 72 73 74 75 76 77 78 532 620 687 754 821 888 955 1022 1089 1156 1223 1353 1420 1487 1554 1621 1688 1755 1822 1889 1956 2023
# Edges
Set 2 nodes 90 3 4 5 6 38 39 40 41 42 43 44 45 46 47 48 49 50 51 52 53 54 55 56 57 58 79 80 81 82 83 84 85 86 87 88 89 90 91 92 93 94 95 96 97 98 99 1225 1228 1231 1234 1237 1240 1243 1246 1249 1252 1255 1258 1261 1264 1267 1270 1273 1276 1279 1282 1285 1288 1961 1965 1968 1971 1974 1977 1980 1983 1986 1989 1992 1995 1998 2001 2004 2007 2010 2013 2016 2019 2022 2025
# P
Set 3 nodes 1 2
