pinch_hemi_15.out
Pinched hemisphere shell element test
NonLinearStatic nsteps 101 deltaT 0.01 rtolf 5.0e-5 rtold -1.0 maxiter 25 controlmode 1 nmodules 1 lstype 3 smtype 7 manrmsteps 1 initialguess 1
vtkxml tstep_step 10 dofman_all element_all primvars 2 1 15 vars 2 1 4
domain 3dDirShell 
OutputManager tstep_step 10 dofman_all element_all
ndofman 1360 nelem 640 ncrosssect 1 nmat 1 nbc 1 nic 0 nltf 1 nset 8
node 1 coords 3 0.000000000000 9.510564800000 -3.090169910000 bc 7 1 0 0 0 0 0 0
node 2 coords 3 0.000000000000 0.000000000000 -10.000000000000 bc 7 1 1 0 0 0 0 0 load 1 2
node 3 coords 3 -10.000000000000 0.000000000000 0.000000000000 bc 7 0 0 1 0 0 0 0 load 1 5
node 4 coords 3 -3.090169910000 9.510564800000 0.000000000000 bc 7 0 0 1 0 0 0 0
node 5 coords 3 0.000000000000 0.000000000000 10.000000000000 bc 7 1 1 0 0 0 0 0 load 1 3
node 6 coords 3 0.000000000000 9.510564800000 3.090169910000 bc 7 1 0 0 0 0 0 0
node 7 coords 3 3.090169910000 9.510564800000 0.000000000000 bc 7 0 0 1 0 0 0 0
node 8 coords 3 10.000000000000 0.000000000000 0.000000000000 bc 7 0 0 1 0 0 0 0 load 1 4
node 9 coords 3 0.000000000000 8.910065650000 -4.539905070000 
node 10 coords 3 0.000000000000 8.090169910000 -5.877852440000 
node 11 coords 3 0.000000000000 7.071067810000 -7.071067810000 
node 12 coords 3 0.000000000000 5.877852440000 -8.090169910000 
node 13 coords 3 0.000000000000 4.539905070000 -8.910065650000 
node 14 coords 3 0.000000000000 3.090169910000 -9.510564800000 
node 15 coords 3 0.000000000000 1.564344640000 -9.876883510000 
node 16 coords 3 -1.564344640000 0.000000000000 -9.876883510000 
node 17 coords 3 -3.090169910000 0.000000000000 -9.510564800000 
node 18 coords 3 -4.539905070000 0.000000000000 -8.910065650000 
node 19 coords 3 -5.877852440000 0.000000000000 -8.090169910000 
node 20 coords 3 -7.071067810000 0.000000000000 -7.071067810000 
node 21 coords 3 -8.090169910000 0.000000000000 -5.877852440000 
node 22 coords 3 -8.910065650000 0.000000000000 -4.539905070000 
node 23 coords 3 -9.510564800000 0.000000000000 -3.090169910000 
node 24 coords 3 -9.876883510000 0.000000000000 -1.564344640000 
node 25 coords 3 -9.876883510000 1.564344640000 0.000000000000 
node 26 coords 3 -9.510564800000 3.090169910000 0.000000000000 
node 27 coords 3 -8.910065650000 4.539905070000 0.000000000000 
node 28 coords 3 -8.090169910000 5.877852440000 0.000000000000 
# ... 1332 like lines cut
tr2shell7 1 nodes 6 1 9 109 361 362 363 mat 1 crossSect 1
tr2shell7 2 nodes 6 109 40 1 364 365 363 mat 1 crossSect 1
tr2shell7 3 nodes 6 9 10 110 366 367 368 mat 1 crossSect 1
tr2shell7 4 nodes 6 110 109 9 369 362 368 mat 1 crossSect 1
tr2shell7 5 nodes 6 10 11 111 370 371 372 mat 1 crossSect 1
tr2shell7 6 nodes 6 111 110 10 373 367 372 mat 1 crossSect 1
tr2shell7 7 nodes 6 11 12 112 374 375 376 mat 1 crossSect 1
tr2shell7 8 nodes 6 112 111 11 377 371 376 mat 1 crossSect 1
tr2shell7 9 nodes 6 12 13 113 378 379 380 mat 1 crossSect 1
tr2shell7 10 nodes 6 113 112 12 381 375 380 mat 1 crossSect 1
tr2shell7 11 nodes 6 13 14 114 382 383 384 mat 1 crossSect 1
tr2shell7 12 nodes 6 114 113 13 385 379 384 mat 1 crossSect 1
tr2shell7 13 nodes 6 14 15 115 386 387 388 mat 1 crossSect 1
tr2shell7 14 nodes 6 115 114 14 389 383 388 mat 1 crossSect 1
tr2shell7 15 nodes 6 15 2 16 390 391 392 mat 1 crossSect 1
tr2shell7 16 nodes 6 16 115 15 393 387 392 mat 1 crossSect 1
tr2shell7 17 nodes 6 40 109 116 364 394 395 mat 1 crossSect 1
tr2shell7 18 nodes 6 116 39 40 396 397 395 mat 1 crossSect 1
tr2shell7 19 nodes 6 109 110 117 369 398 399 mat 1 crossSect 1
tr2shell7 20 nodes 6 117 116 109 400 394 399 mat 1 crossSect 1
# ... 620 like lines cut
layeredCS 1 nlayers 1 layermaterials 1 1 thicks 1 0.04 nintegrationpoints 4
IsoLE 1 d 1. E 6.825e7. n 0.3 tAlpha 1.
BoundaryCondition 1 loadTimeFunction 1 prescribedvalue 0.0 dofs 6 1 2 3 4 5 6
NodalLoad 2 loadTimeFunction 1 Components 7 0. 0. -200. 0. 0. 0. 0.0
NodalLoad 3 loadTimeFunction 1 Components 7 0. 0. 200. 0. 0. 0. 0.0
NodalLoad 4 loadTimeFunction 1 Components 7 -200. 0. 0. 0. 0. 0. 0.0
NodalLoad 5 loadTimeFunction 1 Components 7 200. 0. 0. 0. 0. 0. 0.0
PiecewiseLinFunction 1 npoints 2 t 2 0 1 f(t) 2 0 1.0
# X0Y0Z-1
Set 1 nodes 1 2
# X0Y0Z1
Set 2 nodes 1 5
# X1Y0Z0
Set 3 nodes 1 8
# X-1Y0Z0
Set 4 nodes 1 3
# X-1Y1Z0
Set 5 nodes 1 4
# X0Y1Z-1
Set 6 nodes 1 1
# X0Y1Z1
Set 7 nodes 1 6
# X1Y1Z0
Set 8 nodes 1 7