pinch_hemi_15.out
Pinched hemisphere shell element test
NonLinearStatic nsteps 101 deltaT 0.01 rtolf 5.0e-5 rtold -1.0 maxiter 25 controlmode 1 nmodules 1 lstype 3 smtype 7 manrmsteps 1 initialguess 1
vtkxml tstep_step 10 dofman_all element_all primvars 2 1 15 vars 2 1 4
domain 3dDirShell 
OutputManager tstep_step 10 dofman_all element_all
ndofman 832 nelem 384 ncrosssect 1 nmat 1 nbc 1 nic 0 nltf 1 nset 8
node 1 coords 3 0.000000000000 9.510564800000 -3.090169910000 bc 7 1 0 0 0 0 0 0
node 2 coords 3 0.000000000000 0.000000000000 -10.000000000000 bc 7 1 1 0 0 0 0 0 load 1 2
node 3 coords 3 -10.000000000000 0.000000000000 0.000000000000 bc 7 0 0 1 0 0 0 0 load 1 5
node 4 coords 3 -3.090169910000 9.510564800000 0.000000000000 bc 7 0 0 1 0 0 0 0
node 5 coords 3 0.000000000000 0.000000000000 10.000000000000 bc 7 1 1 0 0 0 0 0 load 1 3
node 6 coords 3 0.000000000000 9.510564800000 3.090169910000 bc 7 1 0 0 0 0 0 0
node 7 coords 3 3.090169910000 9.510564800000 0.000000000000 bc 7 0 0 1 0 0 0 0
node 8 coords 3 10.000000000000 0.000000000000 0.000000000000 bc 7 0 0 1 0 0 0 0 load 1 4
node 9 coords 3 0.000000000000 8.660254480000 -5.000000000000 
node 10 coords 3 0.000000000000 7.431448460000 -6.691306110000 
node 11 coords 3 0.000000000000 5.877852440000 -8.090169910000 
node 12 coords 3 0.000000000000 4.067366600000 -9.135454180000 
node 13 coords 3 0.000000000000 2.079116820000 -9.781476020000 
node 14 coords 3 -1.950903180000 0.000000000000 -9.807852750000 
node 15 coords 3 -3.826834440000 0.000000000000 -9.238795280000 
node 16 coords 3 -5.555702210000 0.000000000000 -8.314696310000 
node 17 coords 3 -7.071067810000 0.000000000000 -7.071067810000 
node 18 coords 3 -8.314696310000 0.000000000000 -5.555702210000 
node 19 coords 3 -9.238795280000 0.000000000000 -3.826834440000 
node 20 coords 3 -9.807852750000 0.000000000000 -1.950903180000 
node 21 coords 3 -9.781476020000 2.079116820000 0.000000000000 
node 22 coords 3 -9.135454180000 4.067366600000 0.000000000000 
node 23 coords 3 -8.090169910000 5.877852440000 0.000000000000 
node 24 coords 3 -6.691306110000 7.431448460000 0.000000000000 
node 25 coords 3 -5.000000000000 8.660254480000 0.000000000000 
node 26 coords 3 -3.030793190000 9.510564800000 -0.602862239000 
node 27 coords 3 -2.854944710000 9.510564800000 -1.182556870000 
node 28 coords 3 -2.569382430000 9.510564800000 -1.716806410000 
# ... 804 like lines cut
tr2shell7 1 nodes 6 1 9 32 225 226 227 mat 1 crossSect 1
tr2shell7 2 nodes 6 9 85 32 228 229 226 mat 1 crossSect 1
tr2shell7 3 nodes 6 9 10 85 230 231 228 mat 1 crossSect 1
tr2shell7 4 nodes 6 10 86 85 232 233 231 mat 1 crossSect 1
tr2shell7 5 nodes 6 10 11 86 234 235 232 mat 1 crossSect 1
tr2shell7 6 nodes 6 11 87 86 236 237 235 mat 1 crossSect 1
tr2shell7 7 nodes 6 11 12 87 238 239 236 mat 1 crossSect 1
tr2shell7 8 nodes 6 12 88 87 240 241 239 mat 1 crossSect 1
tr2shell7 9 nodes 6 12 13 88 242 243 240 mat 1 crossSect 1
tr2shell7 10 nodes 6 13 89 88 244 245 243 mat 1 crossSect 1
tr2shell7 11 nodes 6 13 2 89 246 247 244 mat 1 crossSect 1
tr2shell7 12 nodes 6 2 14 89 248 249 247 mat 1 crossSect 1
tr2shell7 13 nodes 6 32 85 31 229 250 251 mat 1 crossSect 1
tr2shell7 14 nodes 6 85 90 31 252 253 250 mat 1 crossSect 1
tr2shell7 15 nodes 6 85 86 90 233 254 252 mat 1 crossSect 1
tr2shell7 16 nodes 6 86 91 90 255 256 254 mat 1 crossSect 1
tr2shell7 17 nodes 6 86 87 91 237 257 255 mat 1 crossSect 1
tr2shell7 18 nodes 6 87 92 91 258 259 257 mat 1 crossSect 1
tr2shell7 19 nodes 6 87 88 92 241 260 258 mat 1 crossSect 1
tr2shell7 20 nodes 6 88 93 92 261 262 260 mat 1 crossSect 1
# ... 364 like lines cut
layeredCS 1 nlayers 1 layermaterials 1 1 thicks 1 0.04 nintegrationpoints 4
IsoLE 1 d 1. E 6.825e7. n 0.3 tAlpha 1.
BoundaryCondition 1 loadTimeFunction 1 prescribedvalue 0.0 dofs 6 1 2 3 4 5 6
NodalLoad 2 loadTimeFunction 1 Components 7 0. 0. -200. 0. 0. 0. 0.0
NodalLoad 3 loadTimeFunction 1 Components 7 0. 0. 200. 0. 0. 0. 0.0
NodalLoad 4 loadTimeFunction 1 Components 7 -200. 0. 0. 0. 0. 0. 0.0
NodalLoad 5 loadTimeFunction 1 Components 7 200. 0. 0. 0. 0. 0. 0.0
PiecewiseLinFunction 1 npoints 2 t 2 0 1 f(t) 2 0 1.0
# X0Y0Z-1
Set 1 nodes 1 2
# X0Y0Z1
Set 2 nodes 1 5
# X1Y0Z0
Set 3 nodes 1 8
# X-1Y0Z0
Set 4 nodes 1 3
# X-1Y1Z0
Set 5 nodes 1 4
# X0Y1Z-1
Set 6 nodes 1 1
# X0Y1Z1
Set 7 nodes 1 6
# X1Y1Z0
Set 8 nodes 1 7