pinch_hemi_15.out
Pinched hemisphere shell element test
NonLinearStatic nsteps 101 deltaT 0.01 rtolf 5.0e-5 rtold -1.0 maxiter 25 controlmode 1 nmodules 1 lstype 3 smtype 7 manrmsteps 1 initialguess 1
vtkxml tstep_step 10 dofman_all element_all primvars 2 1 15 vars 2 1 4
domain 3dDirShell 
OutputManager tstep_step 10 dofman_all element_all
ndofman 2184 nelem 1040 ncrosssect 1 nmat 1 nbc 1 nic 0 nltf 1 nset 8
node 1 coords 3 0.000000000000 9.510564800000 -3.090169910000 bc 7 1 0 0 0 0 0 0
node 2 coords 3 0.000000000000 0.000000000000 -10.000000000000 bc 7 1 1 0 0 0 0 0 load 1 2
node 3 coords 3 -10.000000000000 0.000000000000 0.000000000000 bc 7 0 0 1 0 0 0 0 load 1 5
node 4 coords 3 -3.090169910000 9.510564800000 0.000000000000 bc 7 0 0 1 0 0 0 0
node 5 coords 3 0.000000000000 0.000000000000 10.000000000000 bc 7 1 1 0 0 0 0 0 load 1 3
node 6 coords 3 0.000000000000 9.510564800000 3.090169910000 bc 7 1 0 0 0 0 0 0
node 7 coords 3 3.090169910000 9.510564800000 0.000000000000 bc 7 0 0 1 0 0 0 0
node 8 coords 3 10.000000000000 0.000000000000 0.000000000000 bc 7 0 0 1 0 0 0 0 load 1 4
node 9 coords 3 0.000000000000 9.048270230000 -4.257792950000 
node 10 coords 3 0.000000000000 8.443279270000 -5.358267780000 
node 11 coords 3 0.000000000000 7.705132480000 -6.374239920000 
node 12 coords 3 0.000000000000 6.845470910000 -7.289686200000 
node 13 coords 3 0.000000000000 5.877852440000 -8.090169910000 
node 14 coords 3 0.000000000000 4.817536830000 -8.763067250000 
node 15 coords 3 0.000000000000 3.681245570000 -9.297764780000 
node 16 coords 3 0.000000000000 2.486898900000 -9.685832020000 
node 17 coords 3 0.000000000000 1.253332380000 -9.921147350000 
node 18 coords 3 -1.205366850000 0.000000000000 -9.927088740000 
node 19 coords 3 -2.393156530000 0.000000000000 -9.709418300000 
node 20 coords 3 -3.546048880000 0.000000000000 -9.350162510000 
node 21 coords 3 -4.647231580000 0.000000000000 -8.854559900000 
node 22 coords 3 -5.680647370000 0.000000000000 -8.229838370000 
node 23 coords 3 -6.631226540000 0.000000000000 -7.485107420000 
node 24 coords 3 -7.485107420000 0.000000000000 -6.631226540000 
node 25 coords 3 -8.229838370000 0.000000000000 -5.680647370000 
node 26 coords 3 -8.854559900000 0.000000000000 -4.647231580000 
node 27 coords 3 -9.350162510000 0.000000000000 -3.546048880000 
node 28 coords 3 -9.709418300000 0.000000000000 -2.393156530000 
# ... 2156 like lines cut
tr2shell7 1 nodes 6 1 9 141 573 574 575 mat 1 crossSect 1 nlgeo 1
tr2shell7 2 nodes 6 141 50 1 576 577 575 mat 1 crossSect 1 nlgeo 1
tr2shell7 3 nodes 6 9 10 142 578 579 580 mat 1 crossSect 1 nlgeo 1
tr2shell7 4 nodes 6 142 141 9 581 574 580 mat 1 crossSect 1 nlgeo 1
tr2shell7 5 nodes 6 10 11 143 582 583 584 mat 1 crossSect 1 nlgeo 1
tr2shell7 6 nodes 6 143 142 10 585 579 584 mat 1 crossSect 1 nlgeo 1
tr2shell7 7 nodes 6 11 12 144 586 587 588 mat 1 crossSect 1 nlgeo 1
tr2shell7 8 nodes 6 144 143 11 589 583 588 mat 1 crossSect 1 nlgeo 1
tr2shell7 9 nodes 6 12 13 145 590 591 592 mat 1 crossSect 1 nlgeo 1
tr2shell7 10 nodes 6 145 144 12 593 587 592 mat 1 crossSect 1 nlgeo 1
tr2shell7 11 nodes 6 13 14 146 594 595 596 mat 1 crossSect 1 nlgeo 1
tr2shell7 12 nodes 6 146 145 13 597 591 596 mat 1 crossSect 1 nlgeo 1
tr2shell7 13 nodes 6 14 15 147 598 599 600 mat 1 crossSect 1 nlgeo 1
tr2shell7 14 nodes 6 147 146 14 601 595 600 mat 1 crossSect 1 nlgeo 1
tr2shell7 15 nodes 6 15 16 148 602 603 604 mat 1 crossSect 1 nlgeo 1
tr2shell7 16 nodes 6 148 147 15 605 599 604 mat 1 crossSect 1 nlgeo 1
tr2shell7 17 nodes 6 16 17 149 606 607 608 mat 1 crossSect 1 nlgeo 1
tr2shell7 18 nodes 6 149 148 16 609 603 608 mat 1 crossSect 1 nlgeo 1
tr2shell7 19 nodes 6 17 2 18 610 611 612 mat 1 crossSect 1 nlgeo 1
tr2shell7 20 nodes 6 18 149 17 613 607 612 mat 1 crossSect 1 nlgeo 1
# ... 1020 like lines cut
layeredCS 1 nlayers 1 layermaterials 1 1 thicks 1 0.04 nintegrationpoints 4
IsoLE 1 d 1. E 6.825e7. n 0.3 tAlpha 1.
BoundaryCondition 1 loadTimeFunction 1 prescribedvalue 0.0 dofs 6 1 2 3 4 5 6
NodalLoad 2 loadTimeFunction 1 Components 7 0. 0. -200. 0. 0. 0. 0.0
NodalLoad 3 loadTimeFunction 1 Components 7 0. 0. 200. 0. 0. 0. 0.0
NodalLoad 4 loadTimeFunction 1 Components 7 -200. 0. 0. 0. 0. 0. 0.0
NodalLoad 5 loadTimeFunction 1 Components 7 200. 0. 0. 0. 0. 0. 0.0
PiecewiseLinFunction 1 npoints 2 t 2 0 1 f(t) 2 0 1.0
# X0Y0Z-1
Set 1 nodes 1 2
# X0Y0Z1
Set 2 nodes 1 5
# X1Y0Z0
Set 3 nodes 1 8
# X-1Y0Z0
Set 4 nodes 1 3
# X-1Y1Z0
Set 5 nodes 1 4
# X0Y1Z-1
Set 6 nodes 1 1
# X0Y1Z1
Set 7 nodes 1 6
# X1Y1Z0
Set 8 nodes 1 7
